/*---------------------------------------------------------------------------*\
| =========                 |                                                 |
| \\      /  F ield         | OpenFOAM: The Open Source CFD Toolbox           |
|  \\    /   O peration     | Version:  2412                                  |
|   \\  /    A nd           | Website:  www.openfoam.com                      |
|    \\/     M anipulation  |                                                 |
\*---------------------------------------------------------------------------*/
Build  : _8dbc61e11c-20241220 OPENFOAM=2412 version=v2412
Arch   : "LSB;label=32;scalar=64"
Exec   : DGHyperSonicFoam
Date   : Nov 01 2025
Time   : 22:24:45
Host   : nam
PID    : 24746
I/O    : uncollated
Case   : /home/nam-ha-tran/OpenFOAM/DGFoam/applications/DGHyperSonicFoam/elbow
nProcs : 1
trapFpe: Floating point exception trapping enabled (FOAM_SIGFPE).
fileModificationChecking : Monitoring run-time modified files using timeStampMaster (fileModificationSkew 5, maxFileModificationPolls 20)
allowSystemOperations : Allowing user-supplied system call operations

// * * * * * * * * * * * * * * * * * * * * * * * * * * * * * * * * * * * * * //
Create time

Create mesh for time = 0

Creating DG Geometric Mesh with polymonial order1

Reading thermophysical properties

Reading field p

Reading field from file: p_0
File not found for field p_1. Creating a new zero field instead.
File not found for field p_2. Creating a new zero field instead.
File not found for field p_3. Creating a new zero field instead.
File not found for field p_4. Creating a new zero field instead.
File not found for field p_5. Creating a new zero field instead.
Reading field U

Reading field from file: U_0
File not found for field U_1. Creating a new zero field instead.
File not found for field U_2. Creating a new zero field instead.
File not found for field U_3. Creating a new zero field instead.
File not found for field U_4. Creating a new zero field instead.
File not found for field U_5. Creating a new zero field instead.
Reading field T

Reading field from file: T_0
File not found for field T_1. Creating a new zero field instead.
File not found for field T_2. Creating a new zero field instead.
File not found for field T_3. Creating a new zero field instead.
File not found for field T_4. Creating a new zero field instead.
File not found for field T_5. Creating a new zero field instead.
Cell 0 basis functions at Gauss points:
//---------------------- DoF = 0---------------------//
  phi: GaussField for cell 0:
Cell Gauss Field:
cellGaussField for cell 0:
  Gauss point 0: 1
  Gauss point 1: 1
  Gauss point 2: 1
  Gauss point 3: 1
  Gauss point 4: 1
  Gauss point 5: 1
  Gauss point 6: 1
  Gauss point 7: 1

Face Gauss Field:
Gauss field values for all faces of cell 0
  Gauss pt 0 on minus side: 1
  Gauss pt 0 on plus  side: 1
  Gauss pt 1 on minus side: 1
  Gauss pt 1 on plus  side: 1
  Gauss pt 2 on minus side: 1
  Gauss pt 2 on plus  side: 1
  Gauss pt 3 on minus side: 1
  Gauss pt 3 on plus  side: 1
  Gauss pt 4 on minus side: 1
  Gauss pt 4 on plus  side: 1
  Gauss pt 5 on minus side: 1
  Gauss pt 5 on plus  side: 1
  Gauss pt 6 on minus side: 1
  Gauss pt 6 on plus  side: 1
  Gauss pt 7 on minus side: 1
  Gauss pt 7 on plus  side: 1
  Gauss pt 8 on minus side: 1
  Gauss pt 8 on plus  side: 1
  Gauss pt 9 on minus side: 1
  Gauss pt 9 on plus  side: 1
  Gauss pt 10 on minus side: 1
  Gauss pt 10 on plus  side: 1
  Gauss pt 11 on minus side: 1
  Gauss pt 11 on plus  side: 1
  Gauss pt 12 on minus side: 1
  Gauss pt 12 on plus  side: 1
  Gauss pt 13 on minus side: 1
  Gauss pt 13 on plus  side: 1
  Gauss pt 14 on minus side: 1
  Gauss pt 14 on plus  side: 1
  Gauss pt 15 on minus side: 1
  Gauss pt 15 on plus  side: 1
  Gauss pt 16 on minus side: 1
  Gauss pt 16 on plus  side: 1
  Gauss pt 17 on minus side: 1
  Gauss pt 17 on plus  side: 1
  Gauss pt 18 on minus side: 1
  Gauss pt 18 on plus  side: 1
  Gauss pt 19 on minus side: 1
  Gauss pt 19 on plus  side: 1


  dPhi: GaussField for cell 0:
Cell Gauss Field:
cellGaussField for cell 0:
  Gauss point 0: (0 0 0)
  Gauss point 1: (0 0 0)
  Gauss point 2: (0 0 0)
  Gauss point 3: (0 0 0)
  Gauss point 4: (0 0 0)
  Gauss point 5: (0 0 0)
  Gauss point 6: (0 0 0)
  Gauss point 7: (0 0 0)

Face Gauss Field:
Gauss field values for all faces of cell 0
  Gauss pt 0 on minus side: (0 0 0)
  Gauss pt 0 on plus  side: (0 0 0)
  Gauss pt 1 on minus side: (0 0 0)
  Gauss pt 1 on plus  side: (0 0 0)
  Gauss pt 2 on minus side: (0 0 0)
  Gauss pt 2 on plus  side: (0 0 0)
  Gauss pt 3 on minus side: (0 0 0)
  Gauss pt 3 on plus  side: (0 0 0)
  Gauss pt 4 on minus side: (0 0 0)
  Gauss pt 4 on plus  side: (0 0 0)
  Gauss pt 5 on minus side: (0 0 0)
  Gauss pt 5 on plus  side: (0 0 0)
  Gauss pt 6 on minus side: (0 0 0)
  Gauss pt 6 on plus  side: (0 0 0)
  Gauss pt 7 on minus side: (0 0 0)
  Gauss pt 7 on plus  side: (0 0 0)
  Gauss pt 8 on minus side: (0 0 0)
  Gauss pt 8 on plus  side: (0 0 0)
  Gauss pt 9 on minus side: (0 0 0)
  Gauss pt 9 on plus  side: (0 0 0)
  Gauss pt 10 on minus side: (0 0 0)
  Gauss pt 10 on plus  side: (0 0 0)
  Gauss pt 11 on minus side: (0 0 0)
  Gauss pt 11 on plus  side: (0 0 0)
  Gauss pt 12 on minus side: (0 0 0)
  Gauss pt 12 on plus  side: (0 0 0)
  Gauss pt 13 on minus side: (0 0 0)
  Gauss pt 13 on plus  side: (0 0 0)
  Gauss pt 14 on minus side: (0 0 0)
  Gauss pt 14 on plus  side: (0 0 0)
  Gauss pt 15 on minus side: (0 0 0)
  Gauss pt 15 on plus  side: (0 0 0)
  Gauss pt 16 on minus side: (0 0 0)
  Gauss pt 16 on plus  side: (0 0 0)
  Gauss pt 17 on minus side: (0 0 0)
  Gauss pt 17 on plus  side: (0 0 0)
  Gauss pt 18 on minus side: (0 0 0)
  Gauss pt 18 on plus  side: (0 0 0)
  Gauss pt 19 on minus side: (0 0 0)
  Gauss pt 19 on plus  side: (0 0 0)


//-------------------------------------------//

//---------------------- DoF = 1---------------------//
  phi: GaussField for cell 0:
Cell Gauss Field:
cellGaussField for cell 0:
  Gauss point 0: -0.366025
  Gauss point 1: -0.366025
  Gauss point 2: -0.366025
  Gauss point 3: -0.366025
  Gauss point 4: 1.36603
  Gauss point 5: 1.36603
  Gauss point 6: 1.36603
  Gauss point 7: 1.36603

Face Gauss Field:
Gauss field values for all faces of cell 0
  Gauss pt 0 on minus side: -1
  Gauss pt 0 on plus  side: -1
  Gauss pt 1 on minus side: -1
  Gauss pt 1 on plus  side: -1
  Gauss pt 2 on minus side: -1
  Gauss pt 2 on plus  side: -1
  Gauss pt 3 on minus side: -1
  Gauss pt 3 on plus  side: -1
  Gauss pt 4 on minus side: 2
  Gauss pt 4 on plus  side: 2
  Gauss pt 5 on minus side: 2
  Gauss pt 5 on plus  side: 2
  Gauss pt 6 on minus side: 2
  Gauss pt 6 on plus  side: 2
  Gauss pt 7 on minus side: 2
  Gauss pt 7 on plus  side: 2
  Gauss pt 8 on minus side: -0.366025
  Gauss pt 8 on plus  side: -0.366025
  Gauss pt 9 on minus side: -0.366025
  Gauss pt 9 on plus  side: -0.366025
  Gauss pt 10 on minus side: 1.36603
  Gauss pt 10 on plus  side: 1.36603
  Gauss pt 11 on minus side: 1.36603
  Gauss pt 11 on plus  side: 1.36603
  Gauss pt 12 on minus side: -0.366025
  Gauss pt 12 on plus  side: -0.366025
  Gauss pt 13 on minus side: -0.366025
  Gauss pt 13 on plus  side: -0.366025
  Gauss pt 14 on minus side: 1.36603
  Gauss pt 14 on plus  side: 1.36603
  Gauss pt 15 on minus side: 1.36603
  Gauss pt 15 on plus  side: 1.36603
  Gauss pt 16 on minus side: -0.366025
  Gauss pt 16 on plus  side: -0.366025
  Gauss pt 17 on minus side: -0.366025
  Gauss pt 17 on plus  side: -0.366025
  Gauss pt 18 on minus side: 1.36603
  Gauss pt 18 on plus  side: 1.36603
  Gauss pt 19 on minus side: 1.36603
  Gauss pt 19 on plus  side: 1.36603


  dPhi: GaussField for cell 0:
Cell Gauss Field:
cellGaussField for cell 0:
  Gauss point 0: (-0 -0 1.5)
  Gauss point 1: (-0 -0 1.5)
  Gauss point 2: (-0 -0 1.5)
  Gauss point 3: (-0 -0 1.5)
  Gauss point 4: (0 0 1.5)
  Gauss point 5: (0 0 1.5)
  Gauss point 6: (0 0 1.5)
  Gauss point 7: (0 0 1.5)

Face Gauss Field:
Gauss field values for all faces of cell 0
  Gauss pt 0 on minus side: (-0 -0 1.5)
  Gauss pt 0 on plus  side: (-0 -0 1.5)
  Gauss pt 1 on minus side: (-0 -0 1.5)
  Gauss pt 1 on plus  side: (-0 -0 1.5)
  Gauss pt 2 on minus side: (-0 -0 1.5)
  Gauss pt 2 on plus  side: (-0 -0 1.5)
  Gauss pt 3 on minus side: (-0 -0 1.5)
  Gauss pt 3 on plus  side: (-0 -0 1.5)
  Gauss pt 4 on minus side: (0 0 1.5)
  Gauss pt 4 on plus  side: (0 0 1.5)
  Gauss pt 5 on minus side: (0 0 1.5)
  Gauss pt 5 on plus  side: (0 0 1.5)
  Gauss pt 6 on minus side: (0 0 1.5)
  Gauss pt 6 on plus  side: (0 0 1.5)
  Gauss pt 7 on minus side: (0 0 1.5)
  Gauss pt 7 on plus  side: (0 0 1.5)
  Gauss pt 8 on minus side: (-0 -0 1.5)
  Gauss pt 8 on plus  side: (-0 -0 1.5)
  Gauss pt 9 on minus side: (-0 -0 1.5)
  Gauss pt 9 on plus  side: (-0 -0 1.5)
  Gauss pt 10 on minus side: (0 0 1.5)
  Gauss pt 10 on plus  side: (0 0 1.5)
  Gauss pt 11 on minus side: (0 0 1.5)
  Gauss pt 11 on plus  side: (0 0 1.5)
  Gauss pt 12 on minus side: (-0 -0 1.5)
  Gauss pt 12 on plus  side: (-0 -0 1.5)
  Gauss pt 13 on minus side: (-0 -0 1.5)
  Gauss pt 13 on plus  side: (-0 -0 1.5)
  Gauss pt 14 on minus side: (0 0 1.5)
  Gauss pt 14 on plus  side: (0 0 1.5)
  Gauss pt 15 on minus side: (0 0 1.5)
  Gauss pt 15 on plus  side: (0 0 1.5)
  Gauss pt 16 on minus side: (-0 -0 1.5)
  Gauss pt 16 on plus  side: (-0 -0 1.5)
  Gauss pt 17 on minus side: (-0 -0 1.5)
  Gauss pt 17 on plus  side: (-0 -0 1.5)
  Gauss pt 18 on minus side: (0 0 1.5)
  Gauss pt 18 on plus  side: (0 0 1.5)
  Gauss pt 19 on minus side: (0 0 1.5)
  Gauss pt 19 on plus  side: (0 0 1.5)


//-------------------------------------------//

//---------------------- DoF = 2---------------------//
  phi: GaussField for cell 0:
Cell Gauss Field:
cellGaussField for cell 0:
  Gauss point 0: -0.57735
  Gauss point 1: -0.57735
  Gauss point 2: 0.57735
  Gauss point 3: 0.57735
  Gauss point 4: -0.57735
  Gauss point 5: -0.57735
  Gauss point 6: 0.57735
  Gauss point 7: 0.57735

Face Gauss Field:
Gauss field values for all faces of cell 0
  Gauss pt 0 on minus side: -0.57735
  Gauss pt 0 on plus  side: -0.57735
  Gauss pt 1 on minus side: -0.57735
  Gauss pt 1 on plus  side: -0.57735
  Gauss pt 2 on minus side: 0.57735
  Gauss pt 2 on plus  side: 0.57735
  Gauss pt 3 on minus side: 0.57735
  Gauss pt 3 on plus  side: 0.57735
  Gauss pt 4 on minus side: -0.57735
  Gauss pt 4 on plus  side: -0.57735
  Gauss pt 5 on minus side: -0.57735
  Gauss pt 5 on plus  side: -0.57735
  Gauss pt 6 on minus side: 0.57735
  Gauss pt 6 on plus  side: 0.57735
  Gauss pt 7 on minus side: 0.57735
  Gauss pt 7 on plus  side: 0.57735
  Gauss pt 8 on minus side: -0.57735
  Gauss pt 8 on plus  side: -1
  Gauss pt 9 on minus side: 0.57735
  Gauss pt 9 on plus  side: -1
  Gauss pt 10 on minus side: -0.57735
  Gauss pt 10 on plus  side: -1
  Gauss pt 11 on minus side: 0.57735
  Gauss pt 11 on plus  side: -1
  Gauss pt 12 on minus side: -0.57735
  Gauss pt 12 on plus  side: -0.57735
  Gauss pt 13 on minus side: 0.57735
  Gauss pt 13 on plus  side: 0.57735
  Gauss pt 14 on minus side: -0.57735
  Gauss pt 14 on plus  side: -0.57735
  Gauss pt 15 on minus side: 0.57735
  Gauss pt 15 on plus  side: 0.57735
  Gauss pt 16 on minus side: -1
  Gauss pt 16 on plus  side: -1
  Gauss pt 17 on minus side: -1
  Gauss pt 17 on plus  side: -1
  Gauss pt 18 on minus side: -1
  Gauss pt 18 on plus  side: -1
  Gauss pt 19 on minus side: -1
  Gauss pt 19 on plus  side: -1


  dPhi: GaussField for cell 0:
Cell Gauss Field:
cellGaussField for cell 0:
  Gauss point 0: (-0 1 -0)
  Gauss point 1: (-0 1 -0)
  Gauss point 2: (0 1 0)
  Gauss point 3: (0 1 0)
  Gauss point 4: (-0 1 -0)
  Gauss point 5: (-0 1 -0)
  Gauss point 6: (0 1 0)
  Gauss point 7: (0 1 0)

Face Gauss Field:
Gauss field values for all faces of cell 0
  Gauss pt 0 on minus side: (-0 1 -0)
  Gauss pt 0 on plus  side: (-0 1 -0)
  Gauss pt 1 on minus side: (-0 1 -0)
  Gauss pt 1 on plus  side: (-0 1 -0)
  Gauss pt 2 on minus side: (0 1 0)
  Gauss pt 2 on plus  side: (0 1 0)
  Gauss pt 3 on minus side: (0 1 0)
  Gauss pt 3 on plus  side: (0 1 0)
  Gauss pt 4 on minus side: (-0 1 -0)
  Gauss pt 4 on plus  side: (-0 1 -0)
  Gauss pt 5 on minus side: (-0 1 -0)
  Gauss pt 5 on plus  side: (-0 1 -0)
  Gauss pt 6 on minus side: (0 1 0)
  Gauss pt 6 on plus  side: (0 1 0)
  Gauss pt 7 on minus side: (0 1 0)
  Gauss pt 7 on plus  side: (0 1 0)
  Gauss pt 8 on minus side: (-0 1 -0)
  Gauss pt 8 on plus  side: (-0 1 -0)
  Gauss pt 9 on minus side: (0 1 0)
  Gauss pt 9 on plus  side: (-0 1 -0)
  Gauss pt 10 on minus side: (-0 1 -0)
  Gauss pt 10 on plus  side: (-0 1 -0)
  Gauss pt 11 on minus side: (0 1 0)
  Gauss pt 11 on plus  side: (-0 1 -0)
  Gauss pt 12 on minus side: (-0 1 -0)
  Gauss pt 12 on plus  side: (-0 1 -0)
  Gauss pt 13 on minus side: (0 1 0)
  Gauss pt 13 on plus  side: (0 1 0)
  Gauss pt 14 on minus side: (-0 1 -0)
  Gauss pt 14 on plus  side: (-0 1 -0)
  Gauss pt 15 on minus side: (0 1 0)
  Gauss pt 15 on plus  side: (0 1 0)
  Gauss pt 16 on minus side: (-0 1 -0)
  Gauss pt 16 on plus  side: (-0 1 -0)
  Gauss pt 17 on minus side: (-0 1 -0)
  Gauss pt 17 on plus  side: (-0 1 -0)
  Gauss pt 18 on minus side: (-0 1 -0)
  Gauss pt 18 on plus  side: (-0 1 -0)
  Gauss pt 19 on minus side: (-0 1 -0)
  Gauss pt 19 on plus  side: (-0 1 -0)


//-------------------------------------------//

//---------------------- DoF = 3---------------------//
  phi: GaussField for cell 0:
Cell Gauss Field:
cellGaussField for cell 0:
  Gauss point 0: -0.910684
  Gauss point 1: 0.910684
  Gauss point 2: -0.910684
  Gauss point 3: 0.910684
  Gauss point 4: -0.244017
  Gauss point 5: 0.244017
  Gauss point 6: -0.244017
  Gauss point 7: 0.244017

Face Gauss Field:
Gauss field values for all faces of cell 0
  Gauss pt 0 on minus side: -1.1547
  Gauss pt 0 on plus  side: -1.1547
  Gauss pt 1 on minus side: 1.1547
  Gauss pt 1 on plus  side: 1.1547
  Gauss pt 2 on minus side: -1.1547
  Gauss pt 2 on plus  side: -1.1547
  Gauss pt 3 on minus side: 1.1547
  Gauss pt 3 on plus  side: 1.1547
  Gauss pt 4 on minus side: -0
  Gauss pt 4 on plus  side: -0
  Gauss pt 5 on minus side: 0
  Gauss pt 5 on plus  side: 0
  Gauss pt 6 on minus side: -0
  Gauss pt 6 on plus  side: -0
  Gauss pt 7 on minus side: 0
  Gauss pt 7 on plus  side: 0
  Gauss pt 8 on minus side: -1.57735
  Gauss pt 8 on plus  side: -0.910684
  Gauss pt 9 on minus side: -1.57735
  Gauss pt 9 on plus  side: 0.910684
  Gauss pt 10 on minus side: -0.42265
  Gauss pt 10 on plus  side: -0.244017
  Gauss pt 11 on minus side: -0.42265
  Gauss pt 11 on plus  side: 0.244017
  Gauss pt 12 on minus side: 1.57735
  Gauss pt 12 on plus  side: 1.57735
  Gauss pt 13 on minus side: 1.57735
  Gauss pt 13 on plus  side: 1.57735
  Gauss pt 14 on minus side: 0.42265
  Gauss pt 14 on plus  side: 0.42265
  Gauss pt 15 on minus side: 0.42265
  Gauss pt 15 on plus  side: 0.42265
  Gauss pt 16 on minus side: -0.910684
  Gauss pt 16 on plus  side: -0.910684
  Gauss pt 17 on minus side: 0.910684
  Gauss pt 17 on plus  side: 0.910684
  Gauss pt 18 on minus side: -0.244017
  Gauss pt 18 on plus  side: -0.244017
  Gauss pt 19 on minus side: 0.244017
  Gauss pt 19 on plus  side: 0.244017


  dPhi: GaussField for cell 0:
Cell Gauss Field:
cellGaussField for cell 0:
  Gauss point 0: (1.57735 -0 0.57735)
  Gauss point 1: (1.57735 0 -0.57735)
  Gauss point 2: (1.57735 -0 0.57735)
  Gauss point 3: (1.57735 0 -0.57735)
  Gauss point 4: (0.42265 -0 0.57735)
  Gauss point 5: (0.42265 0 -0.57735)
  Gauss point 6: (0.42265 -0 0.57735)
  Gauss point 7: (0.42265 0 -0.57735)

Face Gauss Field:
Gauss field values for all faces of cell 0
  Gauss pt 0 on minus side: (2 -0 0.57735)
  Gauss pt 0 on plus  side: (2 -0 0.57735)
  Gauss pt 1 on minus side: (2 0 -0.57735)
  Gauss pt 1 on plus  side: (2 0 -0.57735)
  Gauss pt 2 on minus side: (2 -0 0.57735)
  Gauss pt 2 on plus  side: (2 -0 0.57735)
  Gauss pt 3 on minus side: (2 0 -0.57735)
  Gauss pt 3 on plus  side: (2 0 -0.57735)
  Gauss pt 4 on minus side: (0 -0 0.57735)
  Gauss pt 4 on plus  side: (0 -0 0.57735)
  Gauss pt 5 on minus side: (0 0 -0.57735)
  Gauss pt 5 on plus  side: (0 0 -0.57735)
  Gauss pt 6 on minus side: (0 -0 0.57735)
  Gauss pt 6 on plus  side: (0 -0 0.57735)
  Gauss pt 7 on minus side: (0 0 -0.57735)
  Gauss pt 7 on plus  side: (0 0 -0.57735)
  Gauss pt 8 on minus side: (1.57735 -0 1)
  Gauss pt 8 on plus  side: (1.57735 -0 0.57735)
  Gauss pt 9 on minus side: (1.57735 -0 1)
  Gauss pt 9 on plus  side: (1.57735 0 -0.57735)
  Gauss pt 10 on minus side: (0.42265 -0 1)
  Gauss pt 10 on plus  side: (0.42265 -0 0.57735)
  Gauss pt 11 on minus side: (0.42265 -0 1)
  Gauss pt 11 on plus  side: (0.42265 0 -0.57735)
  Gauss pt 12 on minus side: (1.57735 0 -1)
  Gauss pt 12 on plus  side: (1.57735 0 -1)
  Gauss pt 13 on minus side: (1.57735 0 -1)
  Gauss pt 13 on plus  side: (1.57735 0 -1)
  Gauss pt 14 on minus side: (0.42265 0 -1)
  Gauss pt 14 on plus  side: (0.42265 0 -1)
  Gauss pt 15 on minus side: (0.42265 0 -1)
  Gauss pt 15 on plus  side: (0.42265 0 -1)
  Gauss pt 16 on minus side: (1.57735 -0 0.57735)
  Gauss pt 16 on plus  side: (1.57735 -0 0.57735)
  Gauss pt 17 on minus side: (1.57735 0 -0.57735)
  Gauss pt 17 on plus  side: (1.57735 0 -0.57735)
  Gauss pt 18 on minus side: (0.42265 -0 0.57735)
  Gauss pt 18 on plus  side: (0.42265 -0 0.57735)
  Gauss pt 19 on minus side: (0.42265 0 -0.57735)
  Gauss pt 19 on plus  side: (0.42265 0 -0.57735)


//-------------------------------------------//

//---------------------- DoF = 4---------------------//
  phi: GaussField for cell 0:
Cell Gauss Field:
cellGaussField for cell 0:
  Gauss point 0: 0.333333
  Gauss point 1: -0.333333
  Gauss point 2: 0.333333
  Gauss point 3: -0.333333
  Gauss point 4: -0.333333
  Gauss point 5: 0.333333
  Gauss point 6: -0.333333
  Gauss point 7: 0.333333

Face Gauss Field:
Gauss field values for all faces of cell 0
  Gauss pt 0 on minus side: 1.1547
  Gauss pt 0 on plus  side: 1.1547
  Gauss pt 1 on minus side: -1.1547
  Gauss pt 1 on plus  side: -1.1547
  Gauss pt 2 on minus side: 1.1547
  Gauss pt 2 on plus  side: 1.1547
  Gauss pt 3 on minus side: -1.1547
  Gauss pt 3 on plus  side: -1.1547
  Gauss pt 4 on minus side: -0
  Gauss pt 4 on plus  side: -0
  Gauss pt 5 on minus side: 0
  Gauss pt 5 on plus  side: 0
  Gauss pt 6 on minus side: -0
  Gauss pt 6 on plus  side: -0
  Gauss pt 7 on minus side: 0
  Gauss pt 7 on plus  side: 0
  Gauss pt 8 on minus side: 0.57735
  Gauss pt 8 on plus  side: 0.333333
  Gauss pt 9 on minus side: 0.57735
  Gauss pt 9 on plus  side: -0.333333
  Gauss pt 10 on minus side: -0.57735
  Gauss pt 10 on plus  side: -0.333333
  Gauss pt 11 on minus side: -0.57735
  Gauss pt 11 on plus  side: 0.333333
  Gauss pt 12 on minus side: -0.57735
  Gauss pt 12 on plus  side: -0.57735
  Gauss pt 13 on minus side: -0.57735
  Gauss pt 13 on plus  side: -0.57735
  Gauss pt 14 on minus side: 0.57735
  Gauss pt 14 on plus  side: 0.57735
  Gauss pt 15 on minus side: 0.57735
  Gauss pt 15 on plus  side: 0.57735
  Gauss pt 16 on minus side: 0.333333
  Gauss pt 16 on plus  side: 0.333333
  Gauss pt 17 on minus side: -0.333333
  Gauss pt 17 on plus  side: -0.333333
  Gauss pt 18 on minus side: -0.333333
  Gauss pt 18 on plus  side: -0.333333
  Gauss pt 19 on minus side: 0.333333
  Gauss pt 19 on plus  side: 0.333333


  dPhi: GaussField for cell 0:
Cell Gauss Field:
cellGaussField for cell 0:
  Gauss point 0: (-0.57735 0 -1.57735)
  Gauss point 1: (-0.57735 -0 1.57735)
  Gauss point 2: (-0.57735 0 -1.57735)
  Gauss point 3: (-0.57735 -0 1.57735)
  Gauss point 4: (0.57735 -0 0.42265)
  Gauss point 5: (0.57735 0 -0.42265)
  Gauss point 6: (0.57735 -0 0.42265)
  Gauss point 7: (0.57735 0 -0.42265)

Face Gauss Field:
Gauss field values for all faces of cell 0
  Gauss pt 0 on minus side: (-2 0 -2.3094)
  Gauss pt 0 on plus  side: (-2 0 -2.3094)
  Gauss pt 1 on minus side: (-2 -0 2.3094)
  Gauss pt 1 on plus  side: (-2 -0 2.3094)
  Gauss pt 2 on minus side: (-2 0 -2.3094)
  Gauss pt 2 on plus  side: (-2 0 -2.3094)
  Gauss pt 3 on minus side: (-2 -0 2.3094)
  Gauss pt 3 on plus  side: (-2 -0 2.3094)
  Gauss pt 4 on minus side: (0 -0 1.1547)
  Gauss pt 4 on plus  side: (0 -0 1.1547)
  Gauss pt 5 on minus side: (0 0 -1.1547)
  Gauss pt 5 on plus  side: (0 0 -1.1547)
  Gauss pt 6 on minus side: (0 -0 1.1547)
  Gauss pt 6 on plus  side: (0 -0 1.1547)
  Gauss pt 7 on minus side: (0 0 -1.1547)
  Gauss pt 7 on plus  side: (0 0 -1.1547)
  Gauss pt 8 on minus side: (-0.57735 0 -2.73205)
  Gauss pt 8 on plus  side: (-0.57735 0 -1.57735)
  Gauss pt 9 on minus side: (-0.57735 0 -2.73205)
  Gauss pt 9 on plus  side: (-0.57735 -0 1.57735)
  Gauss pt 10 on minus side: (0.57735 -0 0.732051)
  Gauss pt 10 on plus  side: (0.57735 -0 0.42265)
  Gauss pt 11 on minus side: (0.57735 -0 0.732051)
  Gauss pt 11 on plus  side: (0.57735 0 -0.42265)
  Gauss pt 12 on minus side: (-0.57735 -0 2.73205)
  Gauss pt 12 on plus  side: (-0.57735 -0 2.73205)
  Gauss pt 13 on minus side: (-0.57735 -0 2.73205)
  Gauss pt 13 on plus  side: (-0.57735 -0 2.73205)
  Gauss pt 14 on minus side: (0.57735 0 -0.732051)
  Gauss pt 14 on plus  side: (0.57735 0 -0.732051)
  Gauss pt 15 on minus side: (0.57735 0 -0.732051)
  Gauss pt 15 on plus  side: (0.57735 0 -0.732051)
  Gauss pt 16 on minus side: (-0.57735 0 -1.57735)
  Gauss pt 16 on plus  side: (-0.57735 0 -1.57735)
  Gauss pt 17 on minus side: (-0.57735 -0 1.57735)
  Gauss pt 17 on plus  side: (-0.57735 -0 1.57735)
  Gauss pt 18 on minus side: (0.57735 -0 0.42265)
  Gauss pt 18 on plus  side: (0.57735 -0 0.42265)
  Gauss pt 19 on minus side: (0.57735 0 -0.42265)
  Gauss pt 19 on plus  side: (0.57735 0 -0.42265)


//-------------------------------------------//

//---------------------- DoF = 5---------------------//
  phi: GaussField for cell 0:
Cell Gauss Field:
cellGaussField for cell 0:
  Gauss point 0: 0.525783
  Gauss point 1: -0.525783
  Gauss point 2: -0.525783
  Gauss point 3: 0.525783
  Gauss point 4: 0.140883
  Gauss point 5: -0.140883
  Gauss point 6: -0.140883
  Gauss point 7: 0.140883

Face Gauss Field:
Gauss field values for all faces of cell 0
  Gauss pt 0 on minus side: 0.666667
  Gauss pt 0 on plus  side: 0.666667
  Gauss pt 1 on minus side: -0.666667
  Gauss pt 1 on plus  side: -0.666667
  Gauss pt 2 on minus side: -0.666667
  Gauss pt 2 on plus  side: -0.666667
  Gauss pt 3 on minus side: 0.666667
  Gauss pt 3 on plus  side: 0.666667
  Gauss pt 4 on minus side: 0
  Gauss pt 4 on plus  side: 0
  Gauss pt 5 on minus side: -0
  Gauss pt 5 on plus  side: -0
  Gauss pt 6 on minus side: -0
  Gauss pt 6 on plus  side: -0
  Gauss pt 7 on minus side: 0
  Gauss pt 7 on plus  side: 0
  Gauss pt 8 on minus side: 0.910684
  Gauss pt 8 on plus  side: 0.910684
  Gauss pt 9 on minus side: -0.910684
  Gauss pt 9 on plus  side: -0.910684
  Gauss pt 10 on minus side: 0.244017
  Gauss pt 10 on plus  side: 0.244017
  Gauss pt 11 on minus side: -0.244017
  Gauss pt 11 on plus  side: -0.244017
  Gauss pt 12 on minus side: -0.910684
  Gauss pt 12 on plus  side: -0.910684
  Gauss pt 13 on minus side: 0.910684
  Gauss pt 13 on plus  side: 0.910684
  Gauss pt 14 on minus side: -0.244017
  Gauss pt 14 on plus  side: -0.244017
  Gauss pt 15 on minus side: 0.244017
  Gauss pt 15 on plus  side: 0.244017
  Gauss pt 16 on minus side: 0.910684
  Gauss pt 16 on plus  side: 0.910684
  Gauss pt 17 on minus side: -0.910684
  Gauss pt 17 on plus  side: -0.910684
  Gauss pt 18 on minus side: 0.244017
  Gauss pt 18 on plus  side: 0.244017
  Gauss pt 19 on minus side: -0.244017
  Gauss pt 19 on plus  side: -0.244017


  dPhi: GaussField for cell 0:
Cell Gauss Field:
cellGaussField for cell 0:
  Gauss point 0: (-0.910684 -0.910684 -0.333333)
  Gauss point 1: (-0.910684 0.910684 0.333333)
  Gauss point 2: (0.910684 -0.910684 0.333333)
  Gauss point 3: (0.910684 0.910684 -0.333333)
  Gauss point 4: (-0.244017 -0.244017 -0.333333)
  Gauss point 5: (-0.244017 0.244017 0.333333)
  Gauss point 6: (0.244017 -0.244017 0.333333)
  Gauss point 7: (0.244017 0.244017 -0.333333)

Face Gauss Field:
Gauss field values for all faces of cell 0
  Gauss pt 0 on minus side: (-1.1547 -1.1547 -0.333333)
  Gauss pt 0 on plus  side: (-1.1547 -1.1547 -0.333333)
  Gauss pt 1 on minus side: (-1.1547 1.1547 0.333333)
  Gauss pt 1 on plus  side: (-1.1547 1.1547 0.333333)
  Gauss pt 2 on minus side: (1.1547 -1.1547 0.333333)
  Gauss pt 2 on plus  side: (1.1547 -1.1547 0.333333)
  Gauss pt 3 on minus side: (1.1547 1.1547 -0.333333)
  Gauss pt 3 on plus  side: (1.1547 1.1547 -0.333333)
  Gauss pt 4 on minus side: (-0 -0 -0.333333)
  Gauss pt 4 on plus  side: (-0 -0 -0.333333)
  Gauss pt 5 on minus side: (-0 0 0.333333)
  Gauss pt 5 on plus  side: (-0 0 0.333333)
  Gauss pt 6 on minus side: (0 -0 0.333333)
  Gauss pt 6 on plus  side: (0 -0 0.333333)
  Gauss pt 7 on minus side: (0 0 -0.333333)
  Gauss pt 7 on plus  side: (0 0 -0.333333)
  Gauss pt 8 on minus side: (-0.910684 -1.57735 -0.57735)
  Gauss pt 8 on plus  side: (-1.57735 -0.910684 -0.57735)
  Gauss pt 9 on minus side: (0.910684 -1.57735 0.57735)
  Gauss pt 9 on plus  side: (-1.57735 0.910684 0.57735)
  Gauss pt 10 on minus side: (-0.244017 -0.42265 -0.57735)
  Gauss pt 10 on plus  side: (-0.42265 -0.244017 -0.57735)
  Gauss pt 11 on minus side: (0.244017 -0.42265 0.57735)
  Gauss pt 11 on plus  side: (-0.42265 0.244017 0.57735)
  Gauss pt 12 on minus side: (-0.910684 1.57735 0.57735)
  Gauss pt 12 on plus  side: (-0.910684 1.57735 0.57735)
  Gauss pt 13 on minus side: (0.910684 1.57735 -0.57735)
  Gauss pt 13 on plus  side: (0.910684 1.57735 -0.57735)
  Gauss pt 14 on minus side: (-0.244017 0.42265 0.57735)
  Gauss pt 14 on plus  side: (-0.244017 0.42265 0.57735)
  Gauss pt 15 on minus side: (0.244017 0.42265 -0.57735)
  Gauss pt 15 on plus  side: (0.244017 0.42265 -0.57735)
  Gauss pt 16 on minus side: (-1.57735 -0.910684 -0.57735)
  Gauss pt 16 on plus  side: (-1.57735 -0.910684 -0.57735)
  Gauss pt 17 on minus side: (-1.57735 0.910684 0.57735)
  Gauss pt 17 on plus  side: (-1.57735 0.910684 0.57735)
  Gauss pt 18 on minus side: (-0.42265 -0.244017 -0.57735)
  Gauss pt 18 on plus  side: (-0.42265 -0.244017 -0.57735)
  Gauss pt 19 on minus side: (-0.42265 0.244017 0.57735)
  Gauss pt 19 on plus  side: (-0.42265 0.244017 0.57735)


//-------------------------------------------//

Internal face 0 with centre at (-2.96321 11.0216 9.78492) with owner cell 0 and neighbour 22
Internal face 40 with centre at (20.0567 19.7672 -11.7469) with owner cell 24 and neighbour 109
Internal face 80 with centre at (-0.996549 5.04793 4.06514) with owner cell 49 and neighbour 156
Internal face 120 with centre at (34.6729 34.8936 -19.891) with owner cell 76 and neighbour 262
Internal face 160 with centre at (19.0181 71.4399 19.2856) with owner cell 102 and neighbour 338
Internal face 200 with centre at (5.31018 18.9698 4.82053) with owner cell 130 and neighbour 131
Internal face 240 with centre at (33.6012 63.7823 -1.97459) with owner cell 158 and neighbour 159
Internal face 280 with centre at (35.5804 33.4897 -21.7494) with owner cell 185 and neighbour 186
Internal face 320 with centre at (20.4692 67.2826 15.2099) with owner cell 212 and neighbour 756
Internal face 360 with centre at (34.7898 45.8472 -13.7019) with owner cell 243 and neighbour 657
Internal face 400 with centre at (30.0451 73.8063 7.91895) with owner cell 273 and neighbour 275
Internal face 440 with centre at (-0.876847 9.76916 6.65272) with owner cell 303 and neighbour 331
Internal face 480 with centre at (26.7283 77.8854 14.104) with owner cell 325 and neighbour 348
Internal face 520 with centre at (20.0641 30.8448 -5.35984) with owner cell 351 and neighbour 482
Internal face 560 with centre at (24.6475 57.8711 4.95139) with owner cell 378 and neighbour 379
Internal face 600 with centre at (10.4286 22.0303 0.677334) with owner cell 404 and neighbour 405
Internal face 640 with centre at (1.85055 13.9451 5.9144) with owner cell 430 and neighbour 431
Internal face 680 with centre at (34.1562 40.9125 -15.8193) with owner cell 456 and neighbour 458
Internal face 720 with centre at (22.0294 32.7741 -6.51519) with owner cell 483 and neighbour 694
Internal face 760 with centre at (28.9147 57.9409 0.0643848) with owner cell 508 and neighbour 512
Internal face 800 with centre at (22.4456 66.387 12.4106) with owner cell 533 and neighbour 747
Internal face 840 with centre at (13.7959 21.3737 -3.59002) with owner cell 558 and neighbour 566
Internal face 880 with centre at (34.503 56.3676 -7.29675) with owner cell 588 and neighbour 589
Internal face 920 with centre at (33.8155 51.5603 -9.27845) with owner cell 613 and neighbour 788
Internal face 960 with centre at (20.4103 23.2456 -10.1469) with owner cell 640 and neighbour 825
Internal face 1000 with centre at (30.257 36.1532 -14.0647) with owner cell 668 and neighbour 677
Internal face 1040 with centre at (24.6173 27.6875 -12.4403) with owner cell 697 and neighbour 822
Internal face 1080 with centre at (30.401 62.4772 0.967158) with owner cell 730 and neighbour 731
Internal face 1120 with centre at (9.39619 17.0685 -0.995302) with owner cell 763 and neighbour 861
Internal face 1160 with centre at (34.197 55.2086 -7.61257) with owner cell 794 and neighbour 885
Internal face 1200 with centre at (21.0503 21.7931 -11.7246) with owner cell 827 and neighbour 828
Internal face 1240 with centre at (28.1711 62.8419 3.75267) with owner cell 862 and neighbour 863
Internal face 1280 with centre at (32.3948 40.7984 -13.8513) with owner cell 898 and neighbour 903

Patch 0: wall-4 with 100 faces. Starts at total face 1300
Patch 1: velocity-inlet-5 with 8 faces. Starts at total face 1400
Patch 2: velocity-inlet-6 with 4 faces. Starts at total face 1408
Patch 3: pressure-outlet-7 with 8 faces. Starts at total face 1412
Patch 4: wall-8 with 34 faces. Starts at total face 1420
Patch 5: frontAndBackPlanes with 1836 faces. Starts at total face 1454

Patch 0 has its face 0 adjacent to cell 0. It has normal vector (-0.907148 2.59894 2.54799) and surface area 3.75095
Patch 1 has its face 0 adjacent to cell 0. It has normal vector (-2.49237 -2.35721 1.517) and surface area 3.75095
Patch 2 has its face 0 adjacent to cell 1. It has normal vector (0.453574 -1.29947 -1.27399) and surface area 1.87548
Patch 3 has its face 0 adjacent to cell 2. It has normal vector (-0.907148 2.59894 2.54799) and surface area 3.75095
Patch 4 has its face 0 adjacent to cell 4. It has normal vector (2.23491 2.11371 -1.3603) and surface area 3.36348
Patch 5 has its face 0 adjacent to cell 0. It has normal vector (1.41421 -0.707107 1.22474) and surface area 2

Internal face 0 with centre at (-2.96321 11.0216 9.78492) has 4 vertices: (-2.72275 9.36871 10.0843) (-4.04891 10.0318 8.93582) (-3.20367 12.6744 9.48553) (-1.87751 12.0113 10.634)
Internal face 80 with centre at (-0.996549 5.04793 4.06514) has 4 vertices: (0.121052 5.60706 4.62878) (-0.787987 3.82571 4.64999) (-2.11415 4.48879 3.5015) (-1.20511 6.27014 3.48029)
Internal face 160 with centre at (19.0181 71.4399 19.2856) has 4 vertices: (19.923 70.4154 19.1806) (18.5969 71.0785 18.0321) (18.1132 72.4643 19.3906) (19.4393 71.8012 20.5391)
Internal face 240 with centre at (33.6012 63.7823 -1.97459) has 4 vertices: (34.6799 64.2653 -1.41004) (33.8486 62.6362 -1.39065) (32.5224 63.2993 -2.53914) (33.3538 64.9284 -2.55853)
Internal face 320 with centre at (20.4692 67.2826 15.2099) has 4 vertices: (21.3741 66.2582 15.1048) (20.0479 66.9213 13.9563) (19.5643 68.307 15.3149) (20.8904 67.6439 16.4634)
Internal face 400 with centre at (30.0451 73.8063 7.91895) has 4 vertices: (30.0194 73.2791 9.17567) (31.3971 73.6705 7.81073) (30.0709 74.3335 6.66224) (28.6932 73.9422 8.02718)
Internal face 480 with centre at (26.7283 77.8854 14.104) has 4 vertices: (26.6077 76.3856 14.9086) (28.1751 78.7222 14.4477) (26.849 79.3853 13.2993) (25.2815 77.0487 13.7602)
Internal face 560 with centre at (24.6475 57.8711 4.95139) has 4 vertices: (24.7599 56.5579 5.59475) (25.8613 58.5211 5.45651) (24.5351 59.1842 4.30802) (23.4338 57.221 4.44626)
Internal face 640 with centre at (1.85055 13.9451 5.9144) has 4 vertices: (1.86369 13.9534 7.4353) (3.16356 13.2738 5.54199) (1.8374 13.9369 4.3935) (0.537531 14.6165 6.28681)
Internal face 720 with centre at (22.0294 32.7741 -6.51519) has 4 vertices: (21.9815 31.4117 -5.71518) (20.6553 32.0747 -6.86367) (22.0772 34.1365 -7.31519) (23.4034 33.4734 -6.1667)
Internal face 800 with centre at (22.4456 66.387 12.4106) has 4 vertices: (23.4374 65.4448 12.2527) (22.1113 66.1079 11.1042) (21.4537 67.3292 12.5686) (22.7799 66.6661 13.7171)
Internal face 880 with centre at (34.503 56.3676 -7.29675) has 4 vertices: (35.5882 56.6582 -6.85068) (34.744 55.4139 -6.59433) (33.4178 56.077 -7.74282) (34.262 57.3213 -7.99917)
Internal face 960 with centre at (20.4103 23.2456 -10.1469) has 4 vertices: (21.656 23.8202 -9.72226) (20.4907 22.0079 -9.42305) (19.1645 22.671 -10.5715) (20.3298 24.4833 -10.8708)
Internal face 1040 with centre at (24.6173 27.6875 -12.4403) has 4 vertices: (25.9777 27.6839 -12.4818) (24.5831 27.0279 -11.2502) (23.257 27.691 -12.3987) (24.6516 28.347 -13.6303)
Internal face 1120 with centre at (9.39619 17.0685 -0.995302) has 4 vertices: (9.35973 15.2663 -0.462343) (10.7588 18.2075 -0.379771) (9.43264 18.8706 -1.52826) (8.03357 15.9294 -1.61083)
Internal face 1200 with centre at (21.0503 21.7931 -11.7246) has 4 vertices: (22.0977 21.2664 -11.7068) (21.3291 21.6567 -10.5939) (20.0029 22.3198 -11.7424) (20.7715 21.9294 -12.8553)
Internal face 1280 with centre at (32.3948 40.7984 -13.8513) has 4 vertices: (32.7064 40.8916 -12.626) (33.4093 40.042 -13.9282) (32.0831 40.7051 -15.0767) (31.3802 41.5547 -13.7745)
Face on patch 0, faceI 1360 with centre at (7.42636 21.7693 3.9933) has 4 vertices: (7.42497 20.8093 4.97198) (8.7539 22.0662 4.16311) (7.42774 22.7293 3.01462) (6.09881 21.4724 3.82349)
Face on patch 4, faceI 1440 with centre at (35.0775 61.4599 -5.02012) has 4 vertices: (35.553 61.7564 -3.86668) (35.9282 60.5003 -5.02508) (34.602 61.1634 -6.17357) (34.2268 62.4195 -5.01517)
Face on patch 5, faceI 1520 with centre at (38.6389 32.7654 -24.1679) has 3 vertices: (38.1228 31.7122 -24.1801) (39.0452 32.8674 -24.5782) (38.7488 33.7167 -23.7455)
Face on patch 5, faceI 1600 with centre at (36.2981 32.2044 -21.7889) has 3 vertices: (36.6393 32.0244 -22.2868) (36.3754 32.7803 -21.5457) (35.8796 31.8086 -21.5341)
Face on patch 5, faceI 1680 with centre at (22.3423 20.6268 -12.3585) has 3 vertices: (22.0977 21.2664 -11.7068) (21.9259 19.7782 -12.3676) (23.0033 20.8358 -13.0011)
Face on patch 5, faceI 1760 with centre at (2.38853 14.9818 7.42305) has 3 vertices: (1.86369 13.9534 7.4353) (3.19262 15.2102 6.62643) (2.10927 15.7819 8.20743)
Face on patch 5, faceI 1840 with centre at (22.6742 78.4045 20.6162) has 3 vertices: (22.1494 77.376 20.6285) (23.4783 78.6329 19.8196) (22.3949 79.2045 21.4006)
Face on patch 5, faceI 1920 with centre at (37.1367 32.2531 -22.7291) has 3 vertices: (36.9031 31.2685 -23.0278) (37.8676 33.4664 -22.8726) (36.6393 32.0244 -22.2868)
Face on patch 5, faceI 2000 with centre at (30.6377 72.9518 8.27271) has 3 vertices: (30.0194 73.2791 9.17567) (30.4966 71.9059 7.83175) (31.3971 73.6705 7.81073)
Face on patch 5, faceI 2080 with centre at (5.31368 6.60139 -0.793081) has 3 vertices: (6.22436 6.52442 -1.88908) (4.82125 8.01217 0.590046) (4.89543 5.26756 -1.08021)
Face on patch 5, faceI 2160 with centre at (34.5697 38.6957 -16.0454) has 3 vertices: (34.9295 39.2915 -16.1169) (34.251 38.7243 -15.6608) (34.5286 38.0713 -16.3584)
Face on patch 5, faceI 2240 with centre at (29.814 69.4318 7.19159) has 3 vertices: (29.3681 69.9234 7.99023) (29.0963 67.8354 7.09862) (30.9774 70.5365 6.48591)
Face on patch 5, faceI 2320 with centre at (1.66607 9.20792 4.92371) has 3 vertices: (2.50111 10.5905 4.75773) (0.588471 8.81395 5.94055) (1.90861 8.21929 4.07285)
Face on patch 5, faceI 2400 with centre at (28.382 29.7313 -14.076) has 3 vertices: (27.9588 30.1331 -13.3554) (28.1462 28.8438 -14.3161) (29.0409 30.217 -14.5564)
Face on patch 5, faceI 2480 with centre at (28.4089 54.2973 0.0761305) has 3 vertices: (29.304 55.5735 -0.220586) (27.4435 54.1849 1.12602) (28.4793 53.1335 -0.677039)
Face on patch 5, faceI 2560 with centre at (10.1362 20.517 1.6725) has 3 vertices: (9.55425 19.4101 1.70547) (11.0172 20.6462 0.729905) (9.83725 21.4945 2.58212)
Face on patch 5, faceI 2640 with centre at (34.6224 57.2779 -5.37778) has 3 vertices: (34.2967 57.6884 -4.76471) (34.2087 56.2931 -5.46864) (35.3618 57.8522 -5.89999)
Face on patch 5, faceI 2720 with centre at (20.5424 27.7642 -6.15935) has 3 vertices: (19.5693 26.6246 -5.69361) (21.1097 27.5776 -6.92219) (20.9483 29.0906 -5.86225)
Face on patch 5, faceI 2800 with centre at (27.7263 29.2591 -13.5916) has 3 vertices: (27.9588 30.1331 -13.3554) (27.074 28.8003 -13.1031) (28.1462 28.8438 -14.3161)
Face on patch 5, faceI 2880 with centre at (6.75986 11.2521 0.222118) has 3 vertices: (5.80183 10.1808 0.709823) (7.6246 11.2563 -0.77399) (6.85314 12.3193 0.730522)
Face on patch 5, faceI 2960 with centre at (22.7033 68.9974 15.1515) has 3 vertices: (22.3019 68.0765 15.0833) (23.7133 69.2112 14.1086) (22.0948 69.7046 16.2624)
Face on patch 5, faceI 3040 with centre at (33.2947 51.9567 -6.91694) has 3 vertices: (34.0736 51.5471 -8.05272) (33.5263 52.742 -6.73094) (32.2843 51.5808 -5.96715)
Face on patch 5, faceI 3120 with centre at (33.9441 42.0874 -13.3648) has 3 vertices: (34.1967 41.297 -14.1128) (34.1558 42.8506 -13.1686) (33.4798 42.1147 -12.8129)
Face on patch 5, faceI 3200 with centre at (26.2849 71.5168 12.4703) has 3 vertices: (25.1744 70.3575 13.0833) (26.9279 71.2563 11.5775) (26.7525 72.9366 12.7502)
Face on patch 5, faceI 3280 with centre at (32.689 45.0066 -10.2301) has 3 vertices: (31.9647 44.7186 -9.55999) (32.8661 44.5416 -10.7031) (33.2361 45.7597 -10.4271)

Retrieved patch movingWall at index -1 using its name only.

End

