/*---------------------------------------------------------------------------*\
| =========                 |                                                 |
| \\      /  F ield         | OpenFOAM: The Open Source CFD Toolbox           |
|  \\    /   O peration     | Version:  2412                                  |
|   \\  /    A nd           | Website:  www.openfoam.com                      |
|    \\/     M anipulation  |                                                 |
\*---------------------------------------------------------------------------*/
Build  : _8dbc61e11c-20241220 OPENFOAM=2412 version=v2412
Arch   : "LSB;label=32;scalar=64"
Exec   : icoFoam
Date   : Jul 28 2025
Time   : 09:03:00
Host   : NamTran
PID    : 11462
I/O    : uncollated
Case   : /home/namtran/NAM/Working/DGFoamProject/DGFoam/applications/DGHyperSonicFoam/elbow
nProcs : 1
trapFpe: Floating point exception trapping enabled (FOAM_SIGFPE).
fileModificationChecking : Monitoring run-time modified files using timeStampMaster (fileModificationSkew 5, maxFileModificationPolls 20)
allowSystemOperations : Allowing user-supplied system call operations

// * * * * * * * * * * * * * * * * * * * * * * * * * * * * * * * * * * * * * //
Create time

Create mesh for time = 0


PISO: Operating solver in PISO mode

Reading transportProperties

Reading field p

Reading field U

Reading/calculating face flux field phi


Starting time loop

Time = 0.05

Courant Number mean: 0.000415941 max: 0.173205
smoothSolver:  Solving for Ux, Initial residual = 1, Final residual = 2.59879e-07, No Iterations 1
smoothSolver:  Solving for Uy, Initial residual = 1, Final residual = 2.7558e-06, No Iterations 1
DICPCG:  Solving for p, Initial residual = 1, Final residual = 0.036127, No Iterations 62
DICPCG:  Solving for p, Initial residual = 0.0964781, Final residual = 0.00388218, No Iterations 3
DICPCG:  Solving for p, Initial residual = 0.00947597, Final residual = 0.000467612, No Iterations 44
time step continuity errors : sum local = 7.42259e-05, global = 1.62183e-06, cumulative = 1.62183e-06
DICPCG:  Solving for p, Initial residual = 0.00302872, Final residual = 0.000137611, No Iterations 9
DICPCG:  Solving for p, Initial residual = 0.00040051, Final residual = 1.89259e-05, No Iterations 11
DICPCG:  Solving for p, Initial residual = 7.55534e-05, Final residual = 7.72999e-07, No Iterations 55
time step continuity errors : sum local = 1.18435e-07, global = 2.9852e-09, cumulative = 1.62482e-06
ExecutionTime = 0.01 s  ClockTime = 0 s

Time = 0.1

Courant Number mean: 0.0788444 max: 0.397028
smoothSolver:  Solving for Ux, Initial residual = 0.41777, Final residual = 1.43339e-06, No Iterations 2
smoothSolver:  Solving for Uy, Initial residual = 0.415998, Final residual = 7.16337e-06, No Iterations 2
DICPCG:  Solving for p, Initial residual = 0.0174141, Final residual = 0.000701295, No Iterations 60
DICPCG:  Solving for p, Initial residual = 0.503317, Final residual = 0.0203323, No Iterations 3
DICPCG:  Solving for p, Initial residual = 0.0837591, Final residual = 0.00367981, No Iterations 45
time step continuity errors : sum local = 6.59525e-05, global = -1.04379e-06, cumulative = 5.81027e-07
DICPCG:  Solving for p, Initial residual = 0.104572, Final residual = 0.00332569, No Iterations 58
DICPCG:  Solving for p, Initial residual = 0.257662, Final residual = 0.0119158, No Iterations 6
DICPCG:  Solving for p, Initial residual = 0.0349453, Final residual = 6.69377e-07, No Iterations 73
time step continuity errors : sum local = 1.96408e-09, global = -3.1581e-11, cumulative = 5.80996e-07
ExecutionTime = 0.02 s  ClockTime = 0 s

Time = 0.15

Courant Number mean: 0.0788382 max: 0.393653
smoothSolver:  Solving for Ux, Initial residual = 0.0202978, Final residual = 5.57235e-07, No Iterations 2
smoothSolver:  Solving for Uy, Initial residual = 0.0103336, Final residual = 2.44268e-07, No Iterations 2
DICPCG:  Solving for p, Initial residual = 0.266833, Final residual = 0.0126508, No Iterations 3
DICPCG:  Solving for p, Initial residual = 0.0469203, Final residual = 0.00220425, No Iterations 41
DICPCG:  Solving for p, Initial residual = 0.0173874, Final residual = 0.000648274, No Iterations 9
time step continuity errors : sum local = 1.19089e-06, global = 1.68925e-08, cumulative = 5.97888e-07
DICPCG:  Solving for p, Initial residual = 0.0143187, Final residual = 0.000713929, No Iterations 12
DICPCG:  Solving for p, Initial residual = 0.00303226, Final residual = 0.000126432, No Iterations 41
DICPCG:  Solving for p, Initial residual = 0.000821857, Final residual = 7.92263e-07, No Iterations 39
time step continuity errors : sum local = 1.4653e-09, global = 2.76836e-10, cumulative = 5.98165e-07
ExecutionTime = 0.02 s  ClockTime = 0 s

Time = 0.2

Courant Number mean: 0.078847 max: 0.39399
smoothSolver:  Solving for Ux, Initial residual = 0.0146519, Final residual = 3.95631e-07, No Iterations 2
smoothSolver:  Solving for Uy, Initial residual = 0.00739534, Final residual = 1.66158e-07, No Iterations 2
DICPCG:  Solving for p, Initial residual = 0.141313, Final residual = 0.0053384, No Iterations 3
DICPCG:  Solving for p, Initial residual = 0.0176751, Final residual = 0.000779259, No Iterations 47
DICPCG:  Solving for p, Initial residual = 0.00585738, Final residual = 0.000241698, No Iterations 10
time step continuity errors : sum local = 3.51228e-07, global = -1.81941e-08, cumulative = 5.79971e-07
DICPCG:  Solving for p, Initial residual = 0.00585211, Final residual = 0.000266471, No Iterations 5
DICPCG:  Solving for p, Initial residual = 0.00119684, Final residual = 4.95554e-05, No Iterations 46
DICPCG:  Solving for p, Initial residual = 0.000376066, Final residual = 8.93024e-07, No Iterations 44
time step continuity errors : sum local = 1.29765e-09, global = 2.64875e-10, cumulative = 5.80236e-07
ExecutionTime = 0.02 s  ClockTime = 0 s

Time = 0.25

Courant Number mean: 0.0788562 max: 0.391625
smoothSolver:  Solving for Ux, Initial residual = 0.0122727, Final residual = 3.06976e-07, No Iterations 2
smoothSolver:  Solving for Uy, Initial residual = 0.00613868, Final residual = 1.38988e-07, No Iterations 2
DICPCG:  Solving for p, Initial residual = 0.106975, Final residual = 0.00463922, No Iterations 3
DICPCG:  Solving for p, Initial residual = 0.0124213, Final residual = 0.000524468, No Iterations 49
DICPCG:  Solving for p, Initial residual = 0.00421557, Final residual = 0.000182157, No Iterations 10
time step continuity errors : sum local = 2.29981e-07, global = -9.05335e-09, cumulative = 5.71182e-07
DICPCG:  Solving for p, Initial residual = 0.00412827, Final residual = 0.000185322, No Iterations 6
DICPCG:  Solving for p, Initial residual = 0.000798976, Final residual = 3.44777e-05, No Iterations 55
DICPCG:  Solving for p, Initial residual = 0.000274753, Final residual = 9.02166e-07, No Iterations 34
time step continuity errors : sum local = 1.13921e-09, global = -2.1269e-10, cumulative = 5.7097e-07
ExecutionTime = 0.03 s  ClockTime = 0 s

Time = 0.3

Courant Number mean: 0.0788652 max: 0.387526
smoothSolver:  Solving for Ux, Initial residual = 0.0106136, Final residual = 2.96364e-07, No Iterations 2
smoothSolver:  Solving for Uy, Initial residual = 0.00525661, Final residual = 1.13733e-07, No Iterations 2
DICPCG:  Solving for p, Initial residual = 0.0882958, Final residual = 0.00326387, No Iterations 4
DICPCG:  Solving for p, Initial residual = 0.0109325, Final residual = 0.000505026, No Iterations 51
DICPCG:  Solving for p, Initial residual = 0.00341575, Final residual = 0.000160278, No Iterations 8
time step continuity errors : sum local = 1.82663e-07, global = 2.24327e-09, cumulative = 5.73213e-07
DICPCG:  Solving for p, Initial residual = 0.00363133, Final residual = 0.000158096, No Iterations 6
DICPCG:  Solving for p, Initial residual = 0.000661893, Final residual = 3.30526e-05, No Iterations 25
DICPCG:  Solving for p, Initial residual = 0.00018471, Final residual = 9.53361e-07, No Iterations 59
time step continuity errors : sum local = 1.08709e-09, global = 2.53283e-11, cumulative = 5.73238e-07
ExecutionTime = 0.03 s  ClockTime = 0 s

Time = 0.35

Courant Number mean: 0.0788796 max: 0.382004
smoothSolver:  Solving for Ux, Initial residual = 0.00935663, Final residual = 2.98942e-07, No Iterations 2
smoothSolver:  Solving for Uy, Initial residual = 0.00456371, Final residual = 9.27388e-06, No Iterations 1
DICPCG:  Solving for p, Initial residual = 0.0843368, Final residual = 0.00288119, No Iterations 3
DICPCG:  Solving for p, Initial residual = 0.00962218, Final residual = 0.000459669, No Iterations 13
DICPCG:  Solving for p, Initial residual = 0.00172993, Final residual = 8.42293e-05, No Iterations 51
time step continuity errors : sum local = 8.64164e-08, global = -6.72603e-09, cumulative = 5.66512e-07
DICPCG:  Solving for p, Initial residual = 0.00438732, Final residual = 0.000155993, No Iterations 5
DICPCG:  Solving for p, Initial residual = 0.000703467, Final residual = 3.3866e-05, No Iterations 13
DICPCG:  Solving for p, Initial residual = 0.000139149, Final residual = 6.95886e-07, No Iterations 57
time step continuity errors : sum local = 7.22872e-10, global = 1.43726e-12, cumulative = 5.66514e-07
ExecutionTime = 0.03 s  ClockTime = 0 s

Time = 0.4

Courant Number mean: 0.0788984 max: 0.375618
smoothSolver:  Solving for Ux, Initial residual = 0.00836963, Final residual = 2.64257e-07, No Iterations 2
smoothSolver:  Solving for Uy, Initial residual = 0.00406034, Final residual = 8.70215e-06, No Iterations 1
DICPCG:  Solving for p, Initial residual = 0.0723446, Final residual = 0.00295052, No Iterations 3
DICPCG:  Solving for p, Initial residual = 0.00885209, Final residual = 0.000356684, No Iterations 12
DICPCG:  Solving for p, Initial residual = 0.0014862, Final residual = 5.9602e-05, No Iterations 50
time step continuity errors : sum local = 5.65318e-08, global = -2.03061e-09, cumulative = 5.64483e-07
DICPCG:  Solving for p, Initial residual = 0.00346486, Final residual = 0.000137788, No Iterations 6
DICPCG:  Solving for p, Initial residual = 0.000550989, Final residual = 2.6278e-05, No Iterations 17
DICPCG:  Solving for p, Initial residual = 8.94785e-05, Final residual = 8.08048e-07, No Iterations 59
time step continuity errors : sum local = 7.71647e-10, global = -3.45158e-12, cumulative = 5.6448e-07
ExecutionTime = 0.03 s  ClockTime = 0 s

Time = 0.45

Courant Number mean: 0.078916 max: 0.369042
smoothSolver:  Solving for Ux, Initial residual = 0.00756045, Final residual = 2.27516e-07, No Iterations 2
smoothSolver:  Solving for Uy, Initial residual = 0.00364585, Final residual = 8.11719e-06, No Iterations 1
DICPCG:  Solving for p, Initial residual = 0.0706729, Final residual = 0.00292193, No Iterations 3
DICPCG:  Solving for p, Initial residual = 0.00811303, Final residual = 0.000393183, No Iterations 9
DICPCG:  Solving for p, Initial residual = 0.00136124, Final residual = 6.6621e-05, No Iterations 54
time step continuity errors : sum local = 5.87206e-08, global = 6.93958e-10, cumulative = 5.65173e-07
DICPCG:  Solving for p, Initial residual = 0.00345579, Final residual = 0.000163821, No Iterations 5
DICPCG:  Solving for p, Initial residual = 0.00051199, Final residual = 2.52143e-05, No Iterations 18
DICPCG:  Solving for p, Initial residual = 7.91159e-05, Final residual = 6.60016e-07, No Iterations 57
time step continuity errors : sum local = 5.86378e-10, global = 6.57417e-12, cumulative = 5.6518e-07
ExecutionTime = 0.04 s  ClockTime = 0 s

Time = 0.5

Courant Number mean: 0.0789365 max: 0.3646
smoothSolver:  Solving for Ux, Initial residual = 0.00686395, Final residual = 1.70905e-07, No Iterations 2
smoothSolver:  Solving for Uy, Initial residual = 0.00329416, Final residual = 7.36068e-06, No Iterations 1
DICPCG:  Solving for p, Initial residual = 0.0606573, Final residual = 0.00194139, No Iterations 3
DICPCG:  Solving for p, Initial residual = 0.00660194, Final residual = 0.000261562, No Iterations 9
DICPCG:  Solving for p, Initial residual = 0.00101367, Final residual = 5.01189e-05, No Iterations 22
time step continuity errors : sum local = 4.11322e-08, global = -1.04594e-09, cumulative = 5.64134e-07
DICPCG:  Solving for p, Initial residual = 0.00266855, Final residual = 0.000116929, No Iterations 4
DICPCG:  Solving for p, Initial residual = 0.000439191, Final residual = 1.77136e-05, No Iterations 39
DICPCG:  Solving for p, Initial residual = 0.000134194, Final residual = 9.04376e-07, No Iterations 27
time step continuity errors : sum local = 7.43635e-10, global = 1.16889e-11, cumulative = 5.64146e-07
ExecutionTime = 0.04 s  ClockTime = 0 s

Time = 0.55

Courant Number mean: 0.0789558 max: 0.366777
smoothSolver:  Solving for Ux, Initial residual = 0.00631515, Final residual = 1.50574e-07, No Iterations 2
smoothSolver:  Solving for Uy, Initial residual = 0.0029836, Final residual = 6.66151e-06, No Iterations 1
DICPCG:  Solving for p, Initial residual = 0.053525, Final residual = 0.00170656, No Iterations 3
DICPCG:  Solving for p, Initial residual = 0.00580387, Final residual = 0.000245029, No Iterations 15
DICPCG:  Solving for p, Initial residual = 0.000975063, Final residual = 4.65441e-05, No Iterations 24
time step continuity errors : sum local = 3.59653e-08, global = 6.77782e-09, cumulative = 5.70924e-07
DICPCG:  Solving for p, Initial residual = 0.00203845, Final residual = 8.88267e-05, No Iterations 5
DICPCG:  Solving for p, Initial residual = 0.000377625, Final residual = 1.66938e-05, No Iterations 53
DICPCG:  Solving for p, Initial residual = 0.000136579, Final residual = 9.47654e-07, No Iterations 31
time step continuity errors : sum local = 7.31555e-10, global = -1.22599e-10, cumulative = 5.70801e-07
ExecutionTime = 0.04 s  ClockTime = 0 s

Time = 0.6

Courant Number mean: 0.0789735 max: 0.368495
smoothSolver:  Solving for Ux, Initial residual = 0.00582983, Final residual = 1.46912e-07, No Iterations 2
smoothSolver:  Solving for Uy, Initial residual = 0.00272657, Final residual = 6.41494e-06, No Iterations 1
DICPCG:  Solving for p, Initial residual = 0.0509916, Final residual = 0.00159261, No Iterations 3
DICPCG:  Solving for p, Initial residual = 0.00546001, Final residual = 0.000269197, No Iterations 13
DICPCG:  Solving for p, Initial residual = 0.000977064, Final residual = 4.71339e-05, No Iterations 52
time step continuity errors : sum local = 3.42667e-08, global = -1.14758e-09, cumulative = 5.69653e-07
DICPCG:  Solving for p, Initial residual = 0.00205862, Final residual = 8.58596e-05, No Iterations 5
DICPCG:  Solving for p, Initial residual = 0.000345012, Final residual = 1.67487e-05, No Iterations 21
DICPCG:  Solving for p, Initial residual = 6.42644e-05, Final residual = 9.25271e-07, No Iterations 53
time step continuity errors : sum local = 6.7087e-10, global = -1.97854e-11, cumulative = 5.69634e-07
ExecutionTime = 0.04 s  ClockTime = 0 s

Time = 0.65

Courant Number mean: 0.0789906 max: 0.369872
smoothSolver:  Solving for Ux, Initial residual = 0.00539042, Final residual = 1.33443e-07, No Iterations 2
smoothSolver:  Solving for Uy, Initial residual = 0.00248653, Final residual = 6.12476e-06, No Iterations 1
DICPCG:  Solving for p, Initial residual = 0.0506232, Final residual = 0.00161904, No Iterations 3
DICPCG:  Solving for p, Initial residual = 0.00551479, Final residual = 0.000239634, No Iterations 24
DICPCG:  Solving for p, Initial residual = 0.00135136, Final residual = 6.30723e-05, No Iterations 49
time step continuity errors : sum local = 4.33214e-08, global = 1.79713e-09, cumulative = 5.71431e-07
DICPCG:  Solving for p, Initial residual = 0.00219866, Final residual = 8.85928e-05, No Iterations 7
DICPCG:  Solving for p, Initial residual = 0.000366246, Final residual = 1.74132e-05, No Iterations 26
DICPCG:  Solving for p, Initial residual = 0.000109933, Final residual = 8.60131e-07, No Iterations 58
time step continuity errors : sum local = 5.88861e-10, global = -2.75737e-12, cumulative = 5.71428e-07
ExecutionTime = 0.05 s  ClockTime = 0 s

Time = 0.7

Courant Number mean: 0.0790086 max: 0.37105
smoothSolver:  Solving for Ux, Initial residual = 0.00501915, Final residual = 1.23114e-07, No Iterations 2
smoothSolver:  Solving for Uy, Initial residual = 0.00228436, Final residual = 5.74743e-06, No Iterations 1
DICPCG:  Solving for p, Initial residual = 0.0488015, Final residual = 0.00197337, No Iterations 3
DICPCG:  Solving for p, Initial residual = 0.00622968, Final residual = 0.000280753, No Iterations 25
DICPCG:  Solving for p, Initial residual = 0.00139315, Final residual = 6.32399e-05, No Iterations 38
time step continuity errors : sum local = 4.11613e-08, global = -1.76955e-09, cumulative = 5.69659e-07
DICPCG:  Solving for p, Initial residual = 0.00209302, Final residual = 8.48796e-05, No Iterations 6
DICPCG:  Solving for p, Initial residual = 0.000340625, Final residual = 1.51986e-05, No Iterations 27
DICPCG:  Solving for p, Initial residual = 0.000128738, Final residual = 9.56735e-07, No Iterations 58
time step continuity errors : sum local = 6.19725e-10, global = 1.10226e-11, cumulative = 5.6967e-07
ExecutionTime = 0.05 s  ClockTime = 0 s

Time = 0.75

Courant Number mean: 0.0790258 max: 0.372126
smoothSolver:  Solving for Ux, Initial residual = 0.00469984, Final residual = 1.50501e-07, No Iterations 2
smoothSolver:  Solving for Uy, Initial residual = 0.00213239, Final residual = 5.2693e-06, No Iterations 1
DICPCG:  Solving for p, Initial residual = 0.0450944, Final residual = 0.00194488, No Iterations 3
DICPCG:  Solving for p, Initial residual = 0.00561694, Final residual = 0.000240988, No Iterations 24
DICPCG:  Solving for p, Initial residual = 0.00146109, Final residual = 6.07476e-05, No Iterations 48
time step continuity errors : sum local = 3.77011e-08, global = 1.63227e-09, cumulative = 5.71302e-07
DICPCG:  Solving for p, Initial residual = 0.00212192, Final residual = 8.55353e-05, No Iterations 5
DICPCG:  Solving for p, Initial residual = 0.00034197, Final residual = 1.52128e-05, No Iterations 27
DICPCG:  Solving for p, Initial residual = 9.58223e-05, Final residual = 9.25122e-07, No Iterations 58
time step continuity errors : sum local = 5.71539e-10, global = 2.72668e-12, cumulative = 5.71305e-07
ExecutionTime = 0.05 s  ClockTime = 0 s

Time = 0.8

Courant Number mean: 0.0790418 max: 0.37337
smoothSolver:  Solving for Ux, Initial residual = 0.00441727, Final residual = 1.50266e-07, No Iterations 2
smoothSolver:  Solving for Uy, Initial residual = 0.00200819, Final residual = 4.9893e-06, No Iterations 1
DICPCG:  Solving for p, Initial residual = 0.0418974, Final residual = 0.0014009, No Iterations 3
DICPCG:  Solving for p, Initial residual = 0.00498349, Final residual = 0.000213374, No Iterations 17
DICPCG:  Solving for p, Initial residual = 0.00101909, Final residual = 4.31064e-05, No Iterations 47
time step continuity errors : sum local = 2.54913e-08, global = 6.51635e-10, cumulative = 5.71956e-07
DICPCG:  Solving for p, Initial residual = 0.00192318, Final residual = 8.58512e-05, No Iterations 4
DICPCG:  Solving for p, Initial residual = 0.00026979, Final residual = 1.06618e-05, No Iterations 56
DICPCG:  Solving for p, Initial residual = 0.000102337, Final residual = 9.1227e-07, No Iterations 24
time step continuity errors : sum local = 5.3696e-10, global = 8.67749e-11, cumulative = 5.72043e-07
ExecutionTime = 0.06 s  ClockTime = 0 s

Time = 0.85

Courant Number mean: 0.0790566 max: 0.374557
smoothSolver:  Solving for Ux, Initial residual = 0.00415232, Final residual = 1.4843e-07, No Iterations 2
smoothSolver:  Solving for Uy, Initial residual = 0.00188667, Final residual = 4.61446e-06, No Iterations 1
DICPCG:  Solving for p, Initial residual = 0.0403667, Final residual = 0.00138461, No Iterations 3
DICPCG:  Solving for p, Initial residual = 0.00474579, Final residual = 0.000206271, No Iterations 17
DICPCG:  Solving for p, Initial residual = 0.000930425, Final residual = 4.25771e-05, No Iterations 48
time step continuity errors : sum local = 2.4047e-08, global = 1.85308e-09, cumulative = 5.73896e-07
DICPCG:  Solving for p, Initial residual = 0.00201253, Final residual = 9.82997e-05, No Iterations 3
DICPCG:  Solving for p, Initial residual = 0.000292184, Final residual = 1.34882e-05, No Iterations 25
DICPCG:  Solving for p, Initial residual = 9.11059e-05, Final residual = 8.48379e-07, No Iterations 50
time step continuity errors : sum local = 4.77319e-10, global = -1.11275e-11, cumulative = 5.73885e-07
ExecutionTime = 0.06 s  ClockTime = 0 s

Time = 0.9

Courant Number mean: 0.0790703 max: 0.375698
smoothSolver:  Solving for Ux, Initial residual = 0.00391784, Final residual = 1.50562e-07, No Iterations 2
smoothSolver:  Solving for Uy, Initial residual = 0.00178013, Final residual = 4.43774e-06, No Iterations 1
DICPCG:  Solving for p, Initial residual = 0.0405943, Final residual = 0.0013603, No Iterations 3
DICPCG:  Solving for p, Initial residual = 0.00503015, Final residual = 0.000248253, No Iterations 16
DICPCG:  Solving for p, Initial residual = 0.000929105, Final residual = 3.31561e-05, No Iterations 47
time step continuity errors : sum local = 1.78826e-08, global = -7.82888e-10, cumulative = 5.73102e-07
DICPCG:  Solving for p, Initial residual = 0.00188124, Final residual = 8.29085e-05, No Iterations 3
DICPCG:  Solving for p, Initial residual = 0.000253615, Final residual = 1.06276e-05, No Iterations 51
DICPCG:  Solving for p, Initial residual = 7.35844e-05, Final residual = 8.69435e-07, No Iterations 22
time step continuity errors : sum local = 4.66805e-10, global = 2.92252e-11, cumulative = 5.73131e-07
ExecutionTime = 0.06 s  ClockTime = 0 s

Time = 0.95

Courant Number mean: 0.0790835 max: 0.37681
smoothSolver:  Solving for Ux, Initial residual = 0.0036999, Final residual = 1.54525e-07, No Iterations 2
smoothSolver:  Solving for Uy, Initial residual = 0.00168156, Final residual = 4.2562e-06, No Iterations 1
DICPCG:  Solving for p, Initial residual = 0.0387084, Final residual = 0.00117234, No Iterations 3
DICPCG:  Solving for p, Initial residual = 0.00470253, Final residual = 0.000201373, No Iterations 9
DICPCG:  Solving for p, Initial residual = 0.000823485, Final residual = 4.04592e-05, No Iterations 38
time step continuity errors : sum local = 2.09008e-08, global = 2.11057e-09, cumulative = 5.75242e-07
DICPCG:  Solving for p, Initial residual = 0.00188007, Final residual = 8.26157e-05, No Iterations 4
DICPCG:  Solving for p, Initial residual = 0.000237889, Final residual = 1.15734e-05, No Iterations 24
DICPCG:  Solving for p, Initial residual = 6.12091e-05, Final residual = 8.87862e-07, No Iterations 55
time step continuity errors : sum local = 4.56704e-10, global = 1.58113e-11, cumulative = 5.75258e-07
ExecutionTime = 0.06 s  ClockTime = 0 s

Time = 1

Courant Number mean: 0.0790963 max: 0.377885
smoothSolver:  Solving for Ux, Initial residual = 0.00350761, Final residual = 9.98697e-06, No Iterations 1
smoothSolver:  Solving for Uy, Initial residual = 0.00160257, Final residual = 4.11689e-06, No Iterations 1
DICPCG:  Solving for p, Initial residual = 0.0360947, Final residual = 0.00108826, No Iterations 3
DICPCG:  Solving for p, Initial residual = 0.0041492, Final residual = 0.00019304, No Iterations 9
DICPCG:  Solving for p, Initial residual = 0.000668939, Final residual = 3.32543e-05, No Iterations 53
time step continuity errors : sum local = 1.65131e-08, global = -1.17535e-11, cumulative = 5.75246e-07
DICPCG:  Solving for p, Initial residual = 0.00178292, Final residual = 7.67423e-05, No Iterations 3
DICPCG:  Solving for p, Initial residual = 0.000241751, Final residual = 1.1818e-05, No Iterations 42
DICPCG:  Solving for p, Initial residual = 6.50377e-05, Final residual = 7.41867e-07, No Iterations 32
time step continuity errors : sum local = 3.66828e-10, global = -5.45107e-11, cumulative = 5.75191e-07
ExecutionTime = 0.07 s  ClockTime = 0 s

Time = 1.05

Courant Number mean: 0.0791079 max: 0.378909
smoothSolver:  Solving for Ux, Initial residual = 0.00334043, Final residual = 9.61013e-06, No Iterations 1
smoothSolver:  Solving for Uy, Initial residual = 0.0015355, Final residual = 3.9821e-06, No Iterations 1
DICPCG:  Solving for p, Initial residual = 0.0341913, Final residual = 0.00131419, No Iterations 3
DICPCG:  Solving for p, Initial residual = 0.00420689, Final residual = 0.000201263, No Iterations 7
DICPCG:  Solving for p, Initial residual = 0.00068408, Final residual = 3.37865e-05, No Iterations 40
time step continuity errors : sum local = 1.62768e-08, global = 1.15032e-09, cumulative = 5.76342e-07
DICPCG:  Solving for p, Initial residual = 0.0016735, Final residual = 6.47347e-05, No Iterations 4
DICPCG:  Solving for p, Initial residual = 0.000238419, Final residual = 1.07815e-05, No Iterations 23
DICPCG:  Solving for p, Initial residual = 5.89446e-05, Final residual = 7.97952e-07, No Iterations 57
time step continuity errors : sum local = 3.82651e-10, global = 2.79012e-12, cumulative = 5.76344e-07
ExecutionTime = 0.07 s  ClockTime = 0 s

Time = 1.1

Courant Number mean: 0.0791186 max: 0.379879
smoothSolver:  Solving for Ux, Initial residual = 0.00319366, Final residual = 9.08276e-06, No Iterations 1
smoothSolver:  Solving for Uy, Initial residual = 0.0014697, Final residual = 3.74188e-06, No Iterations 1
DICPCG:  Solving for p, Initial residual = 0.0337969, Final residual = 0.00112572, No Iterations 3
DICPCG:  Solving for p, Initial residual = 0.00405622, Final residual = 0.000188071, No Iterations 10
DICPCG:  Solving for p, Initial residual = 0.000659093, Final residual = 2.68304e-05, No Iterations 49
time step continuity errors : sum local = 1.24719e-08, global = 1.0548e-10, cumulative = 5.7645e-07
DICPCG:  Solving for p, Initial residual = 0.00168888, Final residual = 7.15987e-05, No Iterations 4
DICPCG:  Solving for p, Initial residual = 0.000237083, Final residual = 1.02973e-05, No Iterations 53
DICPCG:  Solving for p, Initial residual = 7.29577e-05, Final residual = 8.22994e-07, No Iterations 26
time step continuity errors : sum local = 3.8066e-10, global = 2.57655e-11, cumulative = 5.76476e-07
ExecutionTime = 0.07 s  ClockTime = 0 s

Time = 1.15

Courant Number mean: 0.0791294 max: 0.380782
smoothSolver:  Solving for Ux, Initial residual = 0.00306376, Final residual = 8.55582e-06, No Iterations 1
smoothSolver:  Solving for Uy, Initial residual = 0.00141508, Final residual = 3.60724e-06, No Iterations 1
DICPCG:  Solving for p, Initial residual = 0.0340496, Final residual = 0.00110803, No Iterations 3
DICPCG:  Solving for p, Initial residual = 0.00417498, Final residual = 0.000192216, No Iterations 10
DICPCG:  Solving for p, Initial residual = 0.000664698, Final residual = 3.23232e-05, No Iterations 43
time step continuity errors : sum local = 1.45151e-08, global = -2.81676e-10, cumulative = 5.76194e-07
DICPCG:  Solving for p, Initial residual = 0.00166724, Final residual = 6.2982e-05, No Iterations 4
DICPCG:  Solving for p, Initial residual = 0.000229437, Final residual = 1.10265e-05, No Iterations 13
DICPCG:  Solving for p, Initial residual = 4.53096e-05, Final residual = 9.95728e-07, No Iterations 54
time step continuity errors : sum local = 4.44483e-10, global = 7.0323e-12, cumulative = 5.76201e-07
ExecutionTime = 0.08 s  ClockTime = 0 s

Time = 1.2

Courant Number mean: 0.0791407 max: 0.381642
smoothSolver:  Solving for Ux, Initial residual = 0.00294276, Final residual = 8.14808e-06, No Iterations 1
smoothSolver:  Solving for Uy, Initial residual = 0.00137244, Final residual = 3.55602e-06, No Iterations 1
DICPCG:  Solving for p, Initial residual = 0.0350315, Final residual = 0.00139351, No Iterations 3
DICPCG:  Solving for p, Initial residual = 0.00440403, Final residual = 0.000200506, No Iterations 11
DICPCG:  Solving for p, Initial residual = 0.000882606, Final residual = 3.99274e-05, No Iterations 53
time step continuity errors : sum local = 1.72538e-08, global = -8.63929e-11, cumulative = 5.76115e-07
DICPCG:  Solving for p, Initial residual = 0.00159249, Final residual = 7.47538e-05, No Iterations 3
DICPCG:  Solving for p, Initial residual = 0.000227788, Final residual = 1.13746e-05, No Iterations 16
DICPCG:  Solving for p, Initial residual = 4.47358e-05, Final residual = 9.68462e-07, No Iterations 48
time step continuity errors : sum local = 4.17131e-10, global = -1.15074e-11, cumulative = 5.76103e-07
ExecutionTime = 0.08 s  ClockTime = 0 s

Time = 1.25

Courant Number mean: 0.0791518 max: 0.382524
smoothSolver:  Solving for Ux, Initial residual = 0.00283335, Final residual = 7.76237e-06, No Iterations 1
smoothSolver:  Solving for Uy, Initial residual = 0.00132514, Final residual = 3.39715e-06, No Iterations 1
DICPCG:  Solving for p, Initial residual = 0.0333867, Final residual = 0.00165508, No Iterations 3
DICPCG:  Solving for p, Initial residual = 0.00464091, Final residual = 0.000201068, No Iterations 26
DICPCG:  Solving for p, Initial residual = 0.0011077, Final residual = 5.04608e-05, No Iterations 39
time step continuity errors : sum local = 2.11663e-08, global = 1.23497e-09, cumulative = 5.77338e-07
DICPCG:  Solving for p, Initial residual = 0.00150724, Final residual = 6.8221e-05, No Iterations 3
DICPCG:  Solving for p, Initial residual = 0.000236301, Final residual = 8.83903e-06, No Iterations 27
DICPCG:  Solving for p, Initial residual = 4.88962e-05, Final residual = 9.55781e-07, No Iterations 50
time step continuity errors : sum local = 3.99701e-10, global = 5.79158e-12, cumulative = 5.77344e-07
ExecutionTime = 0.08 s  ClockTime = 0 s

Time = 1.3

Courant Number mean: 0.0791633 max: 0.383405
smoothSolver:  Solving for Ux, Initial residual = 0.00273934, Final residual = 7.30723e-06, No Iterations 1
smoothSolver:  Solving for Uy, Initial residual = 0.00129176, Final residual = 3.31796e-06, No Iterations 1
DICPCG:  Solving for p, Initial residual = 0.0306493, Final residual = 0.00121095, No Iterations 3
DICPCG:  Solving for p, Initial residual = 0.00378032, Final residual = 0.000162219, No Iterations 10
DICPCG:  Solving for p, Initial residual = 0.000711039, Final residual = 2.83347e-05, No Iterations 45
time step continuity errors : sum local = 1.15823e-08, global = -3.99414e-10, cumulative = 5.76945e-07
DICPCG:  Solving for p, Initial residual = 0.00144387, Final residual = 6.61494e-05, No Iterations 4
DICPCG:  Solving for p, Initial residual = 0.000249663, Final residual = 1.0332e-05, No Iterations 45
DICPCG:  Solving for p, Initial residual = 7.15513e-05, Final residual = 9.05599e-07, No Iterations 26
time step continuity errors : sum local = 3.68451e-10, global = -5.39476e-11, cumulative = 5.76891e-07
ExecutionTime = 0.08 s  ClockTime = 0 s

Time = 1.35

Courant Number mean: 0.0791765 max: 0.384247
smoothSolver:  Solving for Ux, Initial residual = 0.00264573, Final residual = 6.69794e-06, No Iterations 1
smoothSolver:  Solving for Uy, Initial residual = 0.00125426, Final residual = 3.30124e-06, No Iterations 1
DICPCG:  Solving for p, Initial residual = 0.0331785, Final residual = 0.00112545, No Iterations 5
DICPCG:  Solving for p, Initial residual = 0.00403628, Final residual = 0.000184882, No Iterations 25
DICPCG:  Solving for p, Initial residual = 0.000888008, Final residual = 4.30259e-05, No Iterations 37
time step continuity errors : sum local = 1.70663e-08, global = -3.66162e-11, cumulative = 5.76854e-07
DICPCG:  Solving for p, Initial residual = 0.0016074, Final residual = 7.9879e-05, No Iterations 4
DICPCG:  Solving for p, Initial residual = 0.000280404, Final residual = 1.37e-05, No Iterations 20
DICPCG:  Solving for p, Initial residual = 5.96341e-05, Final residual = 9.92717e-07, No Iterations 56
time step continuity errors : sum local = 3.9188e-10, global = -6.65739e-12, cumulative = 5.76847e-07
ExecutionTime = 0.09 s  ClockTime = 0 s

Time = 1.4

Courant Number mean: 0.0791886 max: 0.38511
smoothSolver:  Solving for Ux, Initial residual = 0.00256048, Final residual = 6.33819e-06, No Iterations 1
smoothSolver:  Solving for Uy, Initial residual = 0.00121984, Final residual = 3.1879e-06, No Iterations 1
DICPCG:  Solving for p, Initial residual = 0.0331392, Final residual = 0.00149574, No Iterations 3
DICPCG:  Solving for p, Initial residual = 0.00422306, Final residual = 0.000188485, No Iterations 11
DICPCG:  Solving for p, Initial residual = 0.000746377, Final residual = 3.12135e-05, No Iterations 45
time step continuity errors : sum local = 1.21256e-08, global = 5.8309e-10, cumulative = 5.7743e-07
DICPCG:  Solving for p, Initial residual = 0.00161699, Final residual = 7.88624e-05, No Iterations 4
DICPCG:  Solving for p, Initial residual = 0.000284118, Final residual = 1.03777e-05, No Iterations 45
DICPCG:  Solving for p, Initial residual = 7.7769e-05, Final residual = 9.89558e-07, No Iterations 54
time step continuity errors : sum local = 3.82716e-10, global = -2.2576e-12, cumulative = 5.77428e-07
ExecutionTime = 0.09 s  ClockTime = 0 s

Time = 1.45

Courant Number mean: 0.0792004 max: 0.38592
smoothSolver:  Solving for Ux, Initial residual = 0.00250442, Final residual = 6.20626e-06, No Iterations 1
smoothSolver:  Solving for Uy, Initial residual = 0.00118723, Final residual = 3.05022e-06, No Iterations 1
DICPCG:  Solving for p, Initial residual = 0.0380608, Final residual = 0.00168959, No Iterations 4
DICPCG:  Solving for p, Initial residual = 0.00481762, Final residual = 0.000233805, No Iterations 21
DICPCG:  Solving for p, Initial residual = 0.00101561, Final residual = 3.71243e-05, No Iterations 54
time step continuity errors : sum local = 1.42922e-08, global = 5.53317e-11, cumulative = 5.77483e-07
DICPCG:  Solving for p, Initial residual = 0.00168062, Final residual = 5.78758e-05, No Iterations 5
DICPCG:  Solving for p, Initial residual = 0.000269237, Final residual = 1.26883e-05, No Iterations 19
DICPCG:  Solving for p, Initial residual = 5.66184e-05, Final residual = 9.526e-07, No Iterations 48
time step continuity errors : sum local = 3.65074e-10, global = 1.24335e-11, cumulative = 5.77496e-07
ExecutionTime = 0.09 s  ClockTime = 0 s

Time = 1.5

Courant Number mean: 0.079212 max: 0.386663
smoothSolver:  Solving for Ux, Initial residual = 0.00242913, Final residual = 5.97966e-06, No Iterations 1
smoothSolver:  Solving for Uy, Initial residual = 0.00115338, Final residual = 2.93615e-06, No Iterations 1
DICPCG:  Solving for p, Initial residual = 0.0319733, Final residual = 0.00158175, No Iterations 5
DICPCG:  Solving for p, Initial residual = 0.00443625, Final residual = 0.000218884, No Iterations 54
DICPCG:  Solving for p, Initial residual = 0.00142551, Final residual = 6.3402e-05, No Iterations 7
time step continuity errors : sum local = 2.34605e-08, global = 3.55654e-10, cumulative = 5.77852e-07
DICPCG:  Solving for p, Initial residual = 0.00126637, Final residual = 6.25697e-05, No Iterations 11
DICPCG:  Solving for p, Initial residual = 0.000244988, Final residual = 1.19843e-05, No Iterations 18
DICPCG:  Solving for p, Initial residual = 5.89823e-05, Final residual = 6.85072e-07, No Iterations 55
time step continuity errors : sum local = 2.53484e-10, global = -4.82504e-13, cumulative = 5.77851e-07
ExecutionTime = 0.09 s  ClockTime = 0 s

Time = 1.55

Courant Number mean: 0.0792291 max: 0.387339
smoothSolver:  Solving for Ux, Initial residual = 0.00236154, Final residual = 5.91474e-06, No Iterations 1
smoothSolver:  Solving for Uy, Initial residual = 0.00113842, Final residual = 2.96528e-06, No Iterations 1
DICPCG:  Solving for p, Initial residual = 0.0328988, Final residual = 0.00157432, No Iterations 4
DICPCG:  Solving for p, Initial residual = 0.00468543, Final residual = 0.000191319, No Iterations 26
DICPCG:  Solving for p, Initial residual = 0.00102624, Final residual = 4.81428e-05, No Iterations 35
time step continuity errors : sum local = 1.73764e-08, global = -1.01395e-09, cumulative = 5.76837e-07
DICPCG:  Solving for p, Initial residual = 0.00145408, Final residual = 6.72819e-05, No Iterations 7
DICPCG:  Solving for p, Initial residual = 0.000236843, Final residual = 1.15858e-05, No Iterations 19
DICPCG:  Solving for p, Initial residual = 5.82368e-05, Final residual = 8.29804e-07, No Iterations 57
time step continuity errors : sum local = 2.97929e-10, global = 8.62971e-13, cumulative = 5.76838e-07
ExecutionTime = 0.1 s  ClockTime = 0 s

Time = 1.6

Courant Number mean: 0.0792474 max: 0.388021
smoothSolver:  Solving for Ux, Initial residual = 0.0023067, Final residual = 5.71296e-06, No Iterations 1
smoothSolver:  Solving for Uy, Initial residual = 0.00112386, Final residual = 2.93902e-06, No Iterations 1
DICPCG:  Solving for p, Initial residual = 0.0281387, Final residual = 0.00134175, No Iterations 4
DICPCG:  Solving for p, Initial residual = 0.00358319, Final residual = 0.000172915, No Iterations 26
DICPCG:  Solving for p, Initial residual = 0.000790275, Final residual = 3.712e-05, No Iterations 44
time step continuity errors : sum local = 1.30798e-08, global = -1.31285e-10, cumulative = 5.76707e-07
DICPCG:  Solving for p, Initial residual = 0.0012785, Final residual = 4.89783e-05, No Iterations 12
DICPCG:  Solving for p, Initial residual = 0.000234902, Final residual = 1.00005e-05, No Iterations 18
DICPCG:  Solving for p, Initial residual = 4.77214e-05, Final residual = 9.58527e-07, No Iterations 53
time step continuity errors : sum local = 3.36336e-10, global = 8.11238e-12, cumulative = 5.76715e-07
ExecutionTime = 0.1 s  ClockTime = 0 s

Time = 1.65

Courant Number mean: 0.0792654 max: 0.388645
smoothSolver:  Solving for Ux, Initial residual = 0.00225424, Final residual = 5.48382e-06, No Iterations 1
smoothSolver:  Solving for Uy, Initial residual = 0.00110245, Final residual = 2.89028e-06, No Iterations 1
DICPCG:  Solving for p, Initial residual = 0.030031, Final residual = 0.00124418, No Iterations 4
DICPCG:  Solving for p, Initial residual = 0.00340349, Final residual = 0.000132413, No Iterations 27
DICPCG:  Solving for p, Initial residual = 0.000877199, Final residual = 4.11171e-05, No Iterations 38
time step continuity errors : sum local = 1.41924e-08, global = -1.15519e-09, cumulative = 5.7556e-07
DICPCG:  Solving for p, Initial residual = 0.00134667, Final residual = 6.42743e-05, No Iterations 5
DICPCG:  Solving for p, Initial residual = 0.000236385, Final residual = 1.06088e-05, No Iterations 23
DICPCG:  Solving for p, Initial residual = 7.57753e-05, Final residual = 9.06957e-07, No Iterations 56
time step continuity errors : sum local = 3.1204e-10, global = -2.65082e-12, cumulative = 5.75557e-07
ExecutionTime = 0.1 s  ClockTime = 0 s

Time = 1.7

Courant Number mean: 0.0792838 max: 0.390355
smoothSolver:  Solving for Ux, Initial residual = 0.0021985, Final residual = 5.28702e-06, No Iterations 1
smoothSolver:  Solving for Uy, Initial residual = 0.00108197, Final residual = 2.8667e-06, No Iterations 1
DICPCG:  Solving for p, Initial residual = 0.0325211, Final residual = 0.00150976, No Iterations 4
DICPCG:  Solving for p, Initial residual = 0.00413647, Final residual = 0.000194164, No Iterations 19
DICPCG:  Solving for p, Initial residual = 0.000915991, Final residual = 3.6831e-05, No Iterations 45
time step continuity errors : sum local = 1.24818e-08, global = -1.81618e-10, cumulative = 5.75375e-07
DICPCG:  Solving for p, Initial residual = 0.00171784, Final residual = 7.39968e-05, No Iterations 5
DICPCG:  Solving for p, Initial residual = 0.000262089, Final residual = 1.20175e-05, No Iterations 21
DICPCG:  Solving for p, Initial residual = 6.94125e-05, Final residual = 9.40122e-07, No Iterations 57
time step continuity errors : sum local = 3.17325e-10, global = -1.89445e-12, cumulative = 5.75373e-07
ExecutionTime = 0.1 s  ClockTime = 0 s

Time = 1.75

Courant Number mean: 0.0793017 max: 0.393477
smoothSolver:  Solving for Ux, Initial residual = 0.00214405, Final residual = 5.05277e-06, No Iterations 1
smoothSolver:  Solving for Uy, Initial residual = 0.00106412, Final residual = 2.93272e-06, No Iterations 1
DICPCG:  Solving for p, Initial residual = 0.0299805, Final residual = 0.00109279, No Iterations 4
DICPCG:  Solving for p, Initial residual = 0.00320384, Final residual = 0.000159789, No Iterations 27
DICPCG:  Solving for p, Initial residual = 0.000777908, Final residual = 2.49329e-05, No Iterations 49
time step continuity errors : sum local = 8.34901e-09, global = -1.91923e-10, cumulative = 5.75182e-07
DICPCG:  Solving for p, Initial residual = 0.00145477, Final residual = 6.84339e-05, No Iterations 5
DICPCG:  Solving for p, Initial residual = 0.000214075, Final residual = 9.9966e-06, No Iterations 25
DICPCG:  Solving for p, Initial residual = 5.95644e-05, Final residual = 9.75288e-07, No Iterations 49
time step continuity errors : sum local = 3.25405e-10, global = -8.42782e-12, cumulative = 5.75173e-07
ExecutionTime = 0.11 s  ClockTime = 0 s

Time = 1.8

Courant Number mean: 0.0793191 max: 0.396529
smoothSolver:  Solving for Ux, Initial residual = 0.00209265, Final residual = 5.1193e-06, No Iterations 1
smoothSolver:  Solving for Uy, Initial residual = 0.00104434, Final residual = 2.88864e-06, No Iterations 1
DICPCG:  Solving for p, Initial residual = 0.0264883, Final residual = 0.00112331, No Iterations 4
DICPCG:  Solving for p, Initial residual = 0.00289621, Final residual = 0.000134327, No Iterations 50
DICPCG:  Solving for p, Initial residual = 0.000813904, Final residual = 3.72402e-05, No Iterations 13
time step continuity errors : sum local = 1.22401e-08, global = 1.63536e-09, cumulative = 5.76808e-07
DICPCG:  Solving for p, Initial residual = 0.00118742, Final residual = 4.19153e-05, No Iterations 5
DICPCG:  Solving for p, Initial residual = 0.000182948, Final residual = 9.07129e-06, No Iterations 21
DICPCG:  Solving for p, Initial residual = 5.38386e-05, Final residual = 9.09538e-07, No Iterations 25
time step continuity errors : sum local = 2.99013e-10, global = 2.30677e-11, cumulative = 5.76832e-07
ExecutionTime = 0.11 s  ClockTime = 0 s

Time = 1.85

Courant Number mean: 0.0793387 max: 0.399488
smoothSolver:  Solving for Ux, Initial residual = 0.00205212, Final residual = 5.22807e-06, No Iterations 1
smoothSolver:  Solving for Uy, Initial residual = 0.00102436, Final residual = 2.85518e-06, No Iterations 1
DICPCG:  Solving for p, Initial residual = 0.0290942, Final residual = 0.00120377, No Iterations 4
DICPCG:  Solving for p, Initial residual = 0.00330399, Final residual = 0.000150335, No Iterations 20
DICPCG:  Solving for p, Initial residual = 0.000786279, Final residual = 3.70315e-05, No Iterations 35
time step continuity errors : sum local = 1.20083e-08, global = -1.73672e-10, cumulative = 5.76658e-07
DICPCG:  Solving for p, Initial residual = 0.00141377, Final residual = 5.6203e-05, No Iterations 4
DICPCG:  Solving for p, Initial residual = 0.000208963, Final residual = 9.8496e-06, No Iterations 13
DICPCG:  Solving for p, Initial residual = 4.23625e-05, Final residual = 9.60287e-07, No Iterations 55
time step continuity errors : sum local = 3.10105e-10, global = 4.02696e-12, cumulative = 5.76662e-07
ExecutionTime = 0.11 s  ClockTime = 0 s

Time = 1.9

Courant Number mean: 0.079357 max: 0.402314
smoothSolver:  Solving for Ux, Initial residual = 0.00202253, Final residual = 5.24627e-06, No Iterations 1
smoothSolver:  Solving for Uy, Initial residual = 0.0010019, Final residual = 2.80708e-06, No Iterations 1
DICPCG:  Solving for p, Initial residual = 0.0266771, Final residual = 0.00129538, No Iterations 4
DICPCG:  Solving for p, Initial residual = 0.00313191, Final residual = 0.000143007, No Iterations 27
DICPCG:  Solving for p, Initial residual = 0.000802808, Final residual = 3.99995e-05, No Iterations 36
time step continuity errors : sum local = 1.28496e-08, global = 3.61247e-10, cumulative = 5.77023e-07
DICPCG:  Solving for p, Initial residual = 0.0012951, Final residual = 5.53335e-05, No Iterations 5
DICPCG:  Solving for p, Initial residual = 0.000199692, Final residual = 8.53011e-06, No Iterations 23
DICPCG:  Solving for p, Initial residual = 5.6221e-05, Final residual = 9.11286e-07, No Iterations 55
time step continuity errors : sum local = 2.91858e-10, global = -8.42763e-12, cumulative = 5.77015e-07
ExecutionTime = 0.11 s  ClockTime = 0 s

Time = 1.95

Courant Number mean: 0.0793753 max: 0.405071
smoothSolver:  Solving for Ux, Initial residual = 0.00198281, Final residual = 4.98944e-06, No Iterations 1
smoothSolver:  Solving for Uy, Initial residual = 0.000984684, Final residual = 2.72876e-06, No Iterations 1
DICPCG:  Solving for p, Initial residual = 0.0275564, Final residual = 0.00137468, No Iterations 4
DICPCG:  Solving for p, Initial residual = 0.00354189, Final residual = 0.000157729, No Iterations 17
DICPCG:  Solving for p, Initial residual = 0.000664251, Final residual = 3.1829e-05, No Iterations 48
time step continuity errors : sum local = 1.00988e-08, global = 5.66853e-10, cumulative = 5.77582e-07
DICPCG:  Solving for p, Initial residual = 0.00136835, Final residual = 5.75028e-05, No Iterations 4
DICPCG:  Solving for p, Initial residual = 0.000196895, Final residual = 8.84537e-06, No Iterations 13
DICPCG:  Solving for p, Initial residual = 4.00292e-05, Final residual = 6.80717e-07, No Iterations 52
time step continuity errors : sum local = 2.15304e-10, global = -6.79202e-12, cumulative = 5.77575e-07
ExecutionTime = 0.12 s  ClockTime = 0 s

Time = 2

Courant Number mean: 0.0793943 max: 0.40771
smoothSolver:  Solving for Ux, Initial residual = 0.00195218, Final residual = 4.95479e-06, No Iterations 1
smoothSolver:  Solving for Uy, Initial residual = 0.000967958, Final residual = 2.63814e-06, No Iterations 1
DICPCG:  Solving for p, Initial residual = 0.0267333, Final residual = 0.00110162, No Iterations 4
DICPCG:  Solving for p, Initial residual = 0.00305371, Final residual = 0.000129047, No Iterations 26
DICPCG:  Solving for p, Initial residual = 0.000647957, Final residual = 2.77158e-05, No Iterations 38
time step continuity errors : sum local = 8.72979e-09, global = 3.16017e-11, cumulative = 5.77606e-07
DICPCG:  Solving for p, Initial residual = 0.00130346, Final residual = 6.10325e-05, No Iterations 3
DICPCG:  Solving for p, Initial residual = 0.000187309, Final residual = 9.15083e-06, No Iterations 16
DICPCG:  Solving for p, Initial residual = 5.2134e-05, Final residual = 9.85406e-07, No Iterations 55
time step continuity errors : sum local = 3.09647e-10, global = -1.89056e-12, cumulative = 5.77604e-07
ExecutionTime = 0.12 s  ClockTime = 0 s

Time = 2.05

Courant Number mean: 0.0794129 max: 0.410177
smoothSolver:  Solving for Ux, Initial residual = 0.00191981, Final residual = 4.90221e-06, No Iterations 1
smoothSolver:  Solving for Uy, Initial residual = 0.000951477, Final residual = 2.62023e-06, No Iterations 1
DICPCG:  Solving for p, Initial residual = 0.0253457, Final residual = 0.0011183, No Iterations 5
DICPCG:  Solving for p, Initial residual = 0.00333946, Final residual = 0.000132741, No Iterations 17
DICPCG:  Solving for p, Initial residual = 0.000719855, Final residual = 3.26881e-05, No Iterations 41
time step continuity errors : sum local = 1.0182e-08, global = 3.60072e-10, cumulative = 5.77965e-07
DICPCG:  Solving for p, Initial residual = 0.0012264, Final residual = 5.53164e-05, No Iterations 6
DICPCG:  Solving for p, Initial residual = 0.000185988, Final residual = 8.58101e-06, No Iterations 21
DICPCG:  Solving for p, Initial residual = 4.78571e-05, Final residual = 8.03128e-07, No Iterations 26
time step continuity errors : sum local = 2.4982e-10, global = 5.8873e-12, cumulative = 5.7797e-07
ExecutionTime = 0.12 s  ClockTime = 0 s

Time = 2.1

Courant Number mean: 0.0794328 max: 0.412577
smoothSolver:  Solving for Ux, Initial residual = 0.001882, Final residual = 4.83887e-06, No Iterations 1
smoothSolver:  Solving for Uy, Initial residual = 0.000935281, Final residual = 2.57284e-06, No Iterations 1
DICPCG:  Solving for p, Initial residual = 0.0252263, Final residual = 0.0010372, No Iterations 6
DICPCG:  Solving for p, Initial residual = 0.00358042, Final residual = 0.000173398, No Iterations 15
DICPCG:  Solving for p, Initial residual = 0.000714973, Final residual = 3.3054e-05, No Iterations 19
time step continuity errors : sum local = 1.01369e-08, global = 1.06972e-10, cumulative = 5.78077e-07
DICPCG:  Solving for p, Initial residual = 0.00121349, Final residual = 4.42305e-05, No Iterations 8
DICPCG:  Solving for p, Initial residual = 0.000194942, Final residual = 8.45177e-06, No Iterations 51
DICPCG:  Solving for p, Initial residual = 7.5545e-05, Final residual = 8.57449e-07, No Iterations 18
time step continuity errors : sum local = 2.62919e-10, global = -2.57458e-12, cumulative = 5.78075e-07
ExecutionTime = 0.13 s  ClockTime = 0 s

Time = 2.15

Courant Number mean: 0.0794526 max: 0.414957
smoothSolver:  Solving for Ux, Initial residual = 0.001842, Final residual = 4.75738e-06, No Iterations 1
smoothSolver:  Solving for Uy, Initial residual = 0.000919383, Final residual = 2.54091e-06, No Iterations 1
DICPCG:  Solving for p, Initial residual = 0.0229779, Final residual = 0.000979091, No Iterations 5
DICPCG:  Solving for p, Initial residual = 0.00287424, Final residual = 0.000131311, No Iterations 25
DICPCG:  Solving for p, Initial residual = 0.000666839, Final residual = 3.14044e-05, No Iterations 52
time step continuity errors : sum local = 9.55305e-09, global = 1.78592e-10, cumulative = 5.78253e-07
DICPCG:  Solving for p, Initial residual = 0.00111382, Final residual = 5.35927e-05, No Iterations 5
DICPCG:  Solving for p, Initial residual = 0.000174516, Final residual = 8.21153e-06, No Iterations 18
DICPCG:  Solving for p, Initial residual = 4.65765e-05, Final residual = 8.97008e-07, No Iterations 52
time step continuity errors : sum local = 2.72434e-10, global = 2.2851e-12, cumulative = 5.78256e-07
ExecutionTime = 0.13 s  ClockTime = 0 s

Time = 2.2

Courant Number mean: 0.0794718 max: 0.417312
smoothSolver:  Solving for Ux, Initial residual = 0.00181104, Final residual = 4.65006e-06, No Iterations 1
smoothSolver:  Solving for Uy, Initial residual = 0.000900311, Final residual = 2.56972e-06, No Iterations 1
DICPCG:  Solving for p, Initial residual = 0.0220239, Final residual = 0.00102031, No Iterations 5
DICPCG:  Solving for p, Initial residual = 0.00300281, Final residual = 0.000147367, No Iterations 24
DICPCG:  Solving for p, Initial residual = 0.000707159, Final residual = 3.47618e-05, No Iterations 51
time step continuity errors : sum local = 1.04325e-08, global = 5.55528e-11, cumulative = 5.78311e-07
DICPCG:  Solving for p, Initial residual = 0.00103344, Final residual = 4.53638e-05, No Iterations 6
DICPCG:  Solving for p, Initial residual = 0.000177937, Final residual = 8.15808e-06, No Iterations 19
DICPCG:  Solving for p, Initial residual = 4.49832e-05, Final residual = 8.71701e-07, No Iterations 26
time step continuity errors : sum local = 2.61315e-10, global = -1.72796e-11, cumulative = 5.78294e-07
ExecutionTime = 0.13 s  ClockTime = 0 s

Time = 2.25

Courant Number mean: 0.0794905 max: 0.419657
smoothSolver:  Solving for Ux, Initial residual = 0.00177889, Final residual = 4.48472e-06, No Iterations 1
smoothSolver:  Solving for Uy, Initial residual = 0.000888397, Final residual = 2.57581e-06, No Iterations 1
DICPCG:  Solving for p, Initial residual = 0.0208176, Final residual = 0.00103044, No Iterations 5
DICPCG:  Solving for p, Initial residual = 0.00276327, Final residual = 0.00012682, No Iterations 25
DICPCG:  Solving for p, Initial residual = 0.000647841, Final residual = 3.04583e-05, No Iterations 50
time step continuity errors : sum local = 9.01334e-09, global = -1.2772e-10, cumulative = 5.78166e-07
DICPCG:  Solving for p, Initial residual = 0.000968981, Final residual = 4.62628e-05, No Iterations 6
DICPCG:  Solving for p, Initial residual = 0.000178018, Final residual = 8.46614e-06, No Iterations 19
DICPCG:  Solving for p, Initial residual = 4.62734e-05, Final residual = 9.65545e-07, No Iterations 26
time step continuity errors : sum local = 2.85486e-10, global = 1.52885e-11, cumulative = 5.78182e-07
ExecutionTime = 0.13 s  ClockTime = 0 s

Time = 2.3

Courant Number mean: 0.0795089 max: 0.421995
smoothSolver:  Solving for Ux, Initial residual = 0.00174993, Final residual = 4.38779e-06, No Iterations 1
smoothSolver:  Solving for Uy, Initial residual = 0.000877459, Final residual = 2.57188e-06, No Iterations 1
DICPCG:  Solving for p, Initial residual = 0.020323, Final residual = 0.000979576, No Iterations 5
DICPCG:  Solving for p, Initial residual = 0.00272403, Final residual = 0.000129779, No Iterations 25
DICPCG:  Solving for p, Initial residual = 0.000612685, Final residual = 2.95078e-05, No Iterations 50
time step continuity errors : sum local = 8.62066e-09, global = 2.50883e-11, cumulative = 5.78207e-07
DICPCG:  Solving for p, Initial residual = 0.000960202, Final residual = 4.40477e-05, No Iterations 6
DICPCG:  Solving for p, Initial residual = 0.000178941, Final residual = 8.85353e-06, No Iterations 19
DICPCG:  Solving for p, Initial residual = 4.35002e-05, Final residual = 9.4246e-07, No Iterations 26
time step continuity errors : sum local = 2.75048e-10, global = -3.90983e-11, cumulative = 5.78168e-07
ExecutionTime = 0.14 s  ClockTime = 0 s

Time = 2.35

Courant Number mean: 0.0795268 max: 0.424327
smoothSolver:  Solving for Ux, Initial residual = 0.00172215, Final residual = 4.25371e-06, No Iterations 1
smoothSolver:  Solving for Uy, Initial residual = 0.000865573, Final residual = 2.57635e-06, No Iterations 1
DICPCG:  Solving for p, Initial residual = 0.0205053, Final residual = 0.000979066, No Iterations 5
DICPCG:  Solving for p, Initial residual = 0.00279363, Final residual = 0.00013645, No Iterations 24
DICPCG:  Solving for p, Initial residual = 0.000609209, Final residual = 2.7434e-05, No Iterations 52
time step continuity errors : sum local = 7.92526e-09, global = -2.04211e-10, cumulative = 5.77963e-07
DICPCG:  Solving for p, Initial residual = 0.00104676, Final residual = 4.48349e-05, No Iterations 6
DICPCG:  Solving for p, Initial residual = 0.000189396, Final residual = 8.47831e-06, No Iterations 18
DICPCG:  Solving for p, Initial residual = 3.97228e-05, Final residual = 8.26063e-07, No Iterations 57
time step continuity errors : sum local = 2.38231e-10, global = 6.8561e-13, cumulative = 5.77964e-07
ExecutionTime = 0.14 s  ClockTime = 0 s

Time = 2.4

Courant Number mean: 0.0795444 max: 0.426651
smoothSolver:  Solving for Ux, Initial residual = 0.00169514, Final residual = 4.17163e-06, No Iterations 1
smoothSolver:  Solving for Uy, Initial residual = 0.000855281, Final residual = 2.61077e-06, No Iterations 1
DICPCG:  Solving for p, Initial residual = 0.020281, Final residual = 0.000929577, No Iterations 5
DICPCG:  Solving for p, Initial residual = 0.00275118, Final residual = 0.00012839, No Iterations 25
DICPCG:  Solving for p, Initial residual = 0.000613407, Final residual = 2.88322e-05, No Iterations 46
time step continuity errors : sum local = 8.2487e-09, global = 7.32988e-11, cumulative = 5.78037e-07
DICPCG:  Solving for p, Initial residual = 0.00107247, Final residual = 4.75511e-05, No Iterations 6
DICPCG:  Solving for p, Initial residual = 0.000189362, Final residual = 8.51956e-06, No Iterations 20
DICPCG:  Solving for p, Initial residual = 5.04132e-05, Final residual = 7.86431e-07, No Iterations 56
time step continuity errors : sum local = 2.24593e-10, global = 3.64844e-12, cumulative = 5.78041e-07
ExecutionTime = 0.14 s  ClockTime = 0 s

Time = 2.45

Courant Number mean: 0.0795625 max: 0.428984
smoothSolver:  Solving for Ux, Initial residual = 0.00167235, Final residual = 4.07688e-06, No Iterations 1
smoothSolver:  Solving for Uy, Initial residual = 0.000845112, Final residual = 2.60617e-06, No Iterations 1
DICPCG:  Solving for p, Initial residual = 0.0180272, Final residual = 0.000897251, No Iterations 5
DICPCG:  Solving for p, Initial residual = 0.00260779, Final residual = 9.66493e-05, No Iterations 26
DICPCG:  Solving for p, Initial residual = 0.00061006, Final residual = 2.6112e-05, No Iterations 36
time step continuity errors : sum local = 7.38185e-09, global = 2.30987e-11, cumulative = 5.78064e-07
DICPCG:  Solving for p, Initial residual = 0.00100077, Final residual = 4.75207e-05, No Iterations 7
DICPCG:  Solving for p, Initial residual = 0.000188447, Final residual = 8.34259e-06, No Iterations 18
DICPCG:  Solving for p, Initial residual = 4.44096e-05, Final residual = 7.90694e-07, No Iterations 48
time step continuity errors : sum local = 2.23106e-10, global = 7.54486e-12, cumulative = 5.78072e-07
ExecutionTime = 0.15 s  ClockTime = 0 s

Time = 2.5

Courant Number mean: 0.0795804 max: 0.431329
smoothSolver:  Solving for Ux, Initial residual = 0.00165406, Final residual = 4.05696e-06, No Iterations 1
smoothSolver:  Solving for Uy, Initial residual = 0.000835868, Final residual = 2.61353e-06, No Iterations 1
DICPCG:  Solving for p, Initial residual = 0.0192997, Final residual = 0.000869462, No Iterations 5
DICPCG:  Solving for p, Initial residual = 0.00284472, Final residual = 0.000130519, No Iterations 25
DICPCG:  Solving for p, Initial residual = 0.000650974, Final residual = 3.00042e-05, No Iterations 45
time step continuity errors : sum local = 8.37034e-09, global = 4.1853e-10, cumulative = 5.7849e-07
DICPCG:  Solving for p, Initial residual = 0.00110434, Final residual = 5.20975e-05, No Iterations 12
DICPCG:  Solving for p, Initial residual = 0.000241374, Final residual = 9.32997e-06, No Iterations 18
DICPCG:  Solving for p, Initial residual = 5.50891e-05, Final residual = 8.93581e-07, No Iterations 31
time step continuity errors : sum local = 2.48922e-10, global = -1.13874e-12, cumulative = 5.78489e-07
ExecutionTime = 0.15 s  ClockTime = 0 s

Time = 2.55

Courant Number mean: 0.0795978 max: 0.433675
smoothSolver:  Solving for Ux, Initial residual = 0.00163931, Final residual = 4.01098e-06, No Iterations 1
smoothSolver:  Solving for Uy, Initial residual = 0.00082798, Final residual = 2.63486e-06, No Iterations 1
DICPCG:  Solving for p, Initial residual = 0.0195323, Final residual = 0.000886971, No Iterations 6
DICPCG:  Solving for p, Initial residual = 0.00274547, Final residual = 0.000123547, No Iterations 25
DICPCG:  Solving for p, Initial residual = 0.000666515, Final residual = 2.47053e-05, No Iterations 39
time step continuity errors : sum local = 6.81297e-09, global = 5.96543e-10, cumulative = 5.79086e-07
DICPCG:  Solving for p, Initial residual = 0.000996446, Final residual = 4.83115e-05, No Iterations 8
DICPCG:  Solving for p, Initial residual = 0.000205706, Final residual = 1.00582e-05, No Iterations 20
DICPCG:  Solving for p, Initial residual = 5.22232e-05, Final residual = 8.92465e-07, No Iterations 30
time step continuity errors : sum local = 2.45822e-10, global = -2.43629e-11, cumulative = 5.79061e-07
ExecutionTime = 0.15 s  ClockTime = 0 s

Time = 2.6

Courant Number mean: 0.0796147 max: 0.436019
smoothSolver:  Solving for Ux, Initial residual = 0.0016192, Final residual = 3.90318e-06, No Iterations 1
smoothSolver:  Solving for Uy, Initial residual = 0.000820508, Final residual = 2.61836e-06, No Iterations 1
DICPCG:  Solving for p, Initial residual = 0.0183425, Final residual = 0.000857873, No Iterations 5
DICPCG:  Solving for p, Initial residual = 0.00255054, Final residual = 0.000120503, No Iterations 25
DICPCG:  Solving for p, Initial residual = 0.000529353, Final residual = 2.34053e-05, No Iterations 40
time step continuity errors : sum local = 6.37998e-09, global = 4.61758e-10, cumulative = 5.79523e-07
DICPCG:  Solving for p, Initial residual = 0.000950324, Final residual = 3.97361e-05, No Iterations 7
DICPCG:  Solving for p, Initial residual = 0.000183777, Final residual = 8.14354e-06, No Iterations 16
DICPCG:  Solving for p, Initial residual = 3.79707e-05, Final residual = 9.84109e-07, No Iterations 30
time step continuity errors : sum local = 2.68002e-10, global = -3.72821e-11, cumulative = 5.79486e-07
ExecutionTime = 0.15 s  ClockTime = 0 s

Time = 2.65

Courant Number mean: 0.0796312 max: 0.438344
smoothSolver:  Solving for Ux, Initial residual = 0.0015983, Final residual = 3.82892e-06, No Iterations 1
smoothSolver:  Solving for Uy, Initial residual = 0.000811766, Final residual = 2.52159e-06, No Iterations 1
DICPCG:  Solving for p, Initial residual = 0.0219069, Final residual = 0.00101981, No Iterations 4
DICPCG:  Solving for p, Initial residual = 0.00311332, Final residual = 0.000124772, No Iterations 19
DICPCG:  Solving for p, Initial residual = 0.00062209, Final residual = 2.77058e-05, No Iterations 46
time step continuity errors : sum local = 7.43762e-09, global = 2.4129e-10, cumulative = 5.79727e-07
DICPCG:  Solving for p, Initial residual = 0.00123428, Final residual = 6.06905e-05, No Iterations 5
DICPCG:  Solving for p, Initial residual = 0.000201477, Final residual = 8.50851e-06, No Iterations 13
DICPCG:  Solving for p, Initial residual = 4.43191e-05, Final residual = 7.46156e-07, No Iterations 32
time step continuity errors : sum local = 2.00119e-10, global = -2.14e-11, cumulative = 5.79706e-07
ExecutionTime = 0.16 s  ClockTime = 0 s

Time = 2.7

Courant Number mean: 0.0796476 max: 0.440658
smoothSolver:  Solving for Ux, Initial residual = 0.00157884, Final residual = 3.85278e-06, No Iterations 1
smoothSolver:  Solving for Uy, Initial residual = 0.000804121, Final residual = 2.53977e-06, No Iterations 1
DICPCG:  Solving for p, Initial residual = 0.0190099, Final residual = 0.000869552, No Iterations 5
DICPCG:  Solving for p, Initial residual = 0.00249568, Final residual = 0.000121054, No Iterations 23
DICPCG:  Solving for p, Initial residual = 0.00052796, Final residual = 2.55034e-05, No Iterations 53
time step continuity errors : sum local = 6.74954e-09, global = -1.34508e-10, cumulative = 5.79571e-07
DICPCG:  Solving for p, Initial residual = 0.00100514, Final residual = 4.21632e-05, No Iterations 8
DICPCG:  Solving for p, Initial residual = 0.000203235, Final residual = 1.00079e-05, No Iterations 16
DICPCG:  Solving for p, Initial residual = 5.05817e-05, Final residual = 8.83575e-07, No Iterations 55
time step continuity errors : sum local = 2.33798e-10, global = -2.52518e-12, cumulative = 5.79568e-07
ExecutionTime = 0.16 s  ClockTime = 0 s

Time = 2.75

Courant Number mean: 0.0796637 max: 0.442998
smoothSolver:  Solving for Ux, Initial residual = 0.00155818, Final residual = 3.80327e-06, No Iterations 1
smoothSolver:  Solving for Uy, Initial residual = 0.000797702, Final residual = 2.51317e-06, No Iterations 1
DICPCG:  Solving for p, Initial residual = 0.0176662, Final residual = 0.000723699, No Iterations 6
DICPCG:  Solving for p, Initial residual = 0.00237906, Final residual = 0.000117564, No Iterations 22
DICPCG:  Solving for p, Initial residual = 0.000504515, Final residual = 2.0866e-05, No Iterations 52
time step continuity errors : sum local = 5.45807e-09, global = 9.49152e-12, cumulative = 5.79578e-07
DICPCG:  Solving for p, Initial residual = 0.000958941, Final residual = 4.32152e-05, No Iterations 8
DICPCG:  Solving for p, Initial residual = 0.000201927, Final residual = 8.25738e-06, No Iterations 19
DICPCG:  Solving for p, Initial residual = 5.50638e-05, Final residual = 9.68788e-07, No Iterations 54
time step continuity errors : sum local = 2.5333e-10, global = 2.35324e-12, cumulative = 5.7958e-07
ExecutionTime = 0.16 s  ClockTime = 0 s

Time = 2.8

Courant Number mean: 0.0796793 max: 0.445339
smoothSolver:  Solving for Ux, Initial residual = 0.00153909, Final residual = 3.78931e-06, No Iterations 1
smoothSolver:  Solving for Uy, Initial residual = 0.000792842, Final residual = 2.53648e-06, No Iterations 1
DICPCG:  Solving for p, Initial residual = 0.0199595, Final residual = 0.000768346, No Iterations 5
DICPCG:  Solving for p, Initial residual = 0.00266282, Final residual = 0.000119575, No Iterations 12
DICPCG:  Solving for p, Initial residual = 0.000520417, Final residual = 2.30458e-05, No Iterations 50
time step continuity errors : sum local = 5.94712e-09, global = 3.68924e-10, cumulative = 5.79949e-07
DICPCG:  Solving for p, Initial residual = 0.0011398, Final residual = 5.43634e-05, No Iterations 7
DICPCG:  Solving for p, Initial residual = 0.000218867, Final residual = 1.00554e-05, No Iterations 17
DICPCG:  Solving for p, Initial residual = 5.50567e-05, Final residual = 7.17395e-07, No Iterations 58
time step continuity errors : sum local = 1.85039e-10, global = 6.87749e-13, cumulative = 5.7995e-07
ExecutionTime = 0.16 s  ClockTime = 0 s

Time = 2.85

Courant Number mean: 0.0796941 max: 0.447654
smoothSolver:  Solving for Ux, Initial residual = 0.00152216, Final residual = 3.75836e-06, No Iterations 1
smoothSolver:  Solving for Uy, Initial residual = 0.000787463, Final residual = 2.54914e-06, No Iterations 1
DICPCG:  Solving for p, Initial residual = 0.0170901, Final residual = 0.000854422, No Iterations 6
DICPCG:  Solving for p, Initial residual = 0.00264726, Final residual = 0.000130332, No Iterations 20
DICPCG:  Solving for p, Initial residual = 0.000564414, Final residual = 2.15425e-05, No Iterations 25
time step continuity errors : sum local = 5.49864e-09, global = 1.38758e-09, cumulative = 5.81338e-07
DICPCG:  Solving for p, Initial residual = 0.000961815, Final residual = 4.65012e-05, No Iterations 10
DICPCG:  Solving for p, Initial residual = 0.000219772, Final residual = 1.06843e-05, No Iterations 52
DICPCG:  Solving for p, Initial residual = 9.23444e-05, Final residual = 9.94514e-07, No Iterations 20
time step continuity errors : sum local = 2.53812e-10, global = -4.80185e-11, cumulative = 5.8129e-07
ExecutionTime = 0.17 s  ClockTime = 0 s

Time = 2.9

Courant Number mean: 0.0797083 max: 0.44994
smoothSolver:  Solving for Ux, Initial residual = 0.00150789, Final residual = 3.90287e-06, No Iterations 1
smoothSolver:  Solving for Uy, Initial residual = 0.000783214, Final residual = 2.59773e-06, No Iterations 1
DICPCG:  Solving for p, Initial residual = 0.0167113, Final residual = 0.000686857, No Iterations 7
DICPCG:  Solving for p, Initial residual = 0.00265222, Final residual = 0.000127332, No Iterations 17
DICPCG:  Solving for p, Initial residual = 0.000503094, Final residual = 2.35329e-05, No Iterations 23
time step continuity errors : sum local = 5.96091e-09, global = 9.13322e-10, cumulative = 5.82203e-07
DICPCG:  Solving for p, Initial residual = 0.000979886, Final residual = 4.50786e-05, No Iterations 8
DICPCG:  Solving for p, Initial residual = 0.000202394, Final residual = 9.06414e-06, No Iterations 53
DICPCG:  Solving for p, Initial residual = 8.58453e-05, Final residual = 8.95844e-07, No Iterations 20
time step continuity errors : sum local = 2.26898e-10, global = -2.84521e-11, cumulative = 5.82174e-07
ExecutionTime = 0.17 s  ClockTime = 0 s

Time = 2.95

Courant Number mean: 0.0797221 max: 0.452217
smoothSolver:  Solving for Ux, Initial residual = 0.00149494, Final residual = 3.8581e-06, No Iterations 1
smoothSolver:  Solving for Uy, Initial residual = 0.000780602, Final residual = 2.60069e-06, No Iterations 1
DICPCG:  Solving for p, Initial residual = 0.0174746, Final residual = 0.000761723, No Iterations 7
DICPCG:  Solving for p, Initial residual = 0.00276637, Final residual = 0.000130529, No Iterations 24
DICPCG:  Solving for p, Initial residual = 0.000667966, Final residual = 2.80206e-05, No Iterations 49
time step continuity errors : sum local = 7.05862e-09, global = 1.20905e-10, cumulative = 5.82295e-07
DICPCG:  Solving for p, Initial residual = 0.000928011, Final residual = 4.02241e-05, No Iterations 8
DICPCG:  Solving for p, Initial residual = 0.000192554, Final residual = 7.41971e-06, No Iterations 19
DICPCG:  Solving for p, Initial residual = 5.21431e-05, Final residual = 9.59462e-07, No Iterations 56
time step continuity errors : sum local = 2.41511e-10, global = 3.78959e-12, cumulative = 5.82299e-07
ExecutionTime = 0.17 s  ClockTime = 0 s

Time = 3

Courant Number mean: 0.079738 max: 0.45445
smoothSolver:  Solving for Ux, Initial residual = 0.0014829, Final residual = 3.99372e-06, No Iterations 1
smoothSolver:  Solving for Uy, Initial residual = 0.000780412, Final residual = 2.63146e-06, No Iterations 1
DICPCG:  Solving for p, Initial residual = 0.0200544, Final residual = 0.000928481, No Iterations 7
DICPCG:  Solving for p, Initial residual = 0.0029767, Final residual = 0.000141468, No Iterations 16
DICPCG:  Solving for p, Initial residual = 0.000701363, Final residual = 3.41427e-05, No Iterations 15
time step continuity errors : sum local = 8.477e-09, global = -1.55278e-09, cumulative = 5.80746e-07
DICPCG:  Solving for p, Initial residual = 0.00119101, Final residual = 5.29009e-05, No Iterations 7
DICPCG:  Solving for p, Initial residual = 0.000281853, Final residual = 1.35507e-05, No Iterations 42
DICPCG:  Solving for p, Initial residual = 0.000125258, Final residual = 9.47815e-07, No Iterations 25
time step continuity errors : sum local = 2.35723e-10, global = 2.15458e-11, cumulative = 5.80768e-07
ExecutionTime = 0.18 s  ClockTime = 0 s

Time = 3.05

Courant Number mean: 0.0797538 max: 0.456606
smoothSolver:  Solving for Ux, Initial residual = 0.00147079, Final residual = 3.9605e-06, No Iterations 1
smoothSolver:  Solving for Uy, Initial residual = 0.000774276, Final residual = 2.63516e-06, No Iterations 1
DICPCG:  Solving for p, Initial residual = 0.0195518, Final residual = 0.00081415, No Iterations 6
DICPCG:  Solving for p, Initial residual = 0.00270745, Final residual = 0.000133299, No Iterations 15
DICPCG:  Solving for p, Initial residual = 0.000527719, Final residual = 2.4791e-05, No Iterations 25
time step continuity errors : sum local = 6.14669e-09, global = 5.86404e-10, cumulative = 5.81354e-07
DICPCG:  Solving for p, Initial residual = 0.000993873, Final residual = 4.60904e-05, No Iterations 6
DICPCG:  Solving for p, Initial residual = 0.000173376, Final residual = 7.72723e-06, No Iterations 44
DICPCG:  Solving for p, Initial residual = 6.42471e-05, Final residual = 8.11937e-07, No Iterations 26
time step continuity errors : sum local = 2.01288e-10, global = 2.62243e-11, cumulative = 5.8138e-07
ExecutionTime = 0.18 s  ClockTime = 0 s

Time = 3.1

Courant Number mean: 0.0797705 max: 0.458709
smoothSolver:  Solving for Ux, Initial residual = 0.00145604, Final residual = 3.91173e-06, No Iterations 1
smoothSolver:  Solving for Uy, Initial residual = 0.000772348, Final residual = 2.62304e-06, No Iterations 1
DICPCG:  Solving for p, Initial residual = 0.0178511, Final residual = 0.000756614, No Iterations 6
DICPCG:  Solving for p, Initial residual = 0.00274888, Final residual = 0.000110071, No Iterations 24
DICPCG:  Solving for p, Initial residual = 0.000592311, Final residual = 2.94557e-05, No Iterations 17
time step continuity errors : sum local = 7.28471e-09, global = 1.88276e-09, cumulative = 5.83263e-07
DICPCG:  Solving for p, Initial residual = 0.000975553, Final residual = 4.35471e-05, No Iterations 6
DICPCG:  Solving for p, Initial residual = 0.000167588, Final residual = 7.72144e-06, No Iterations 39
DICPCG:  Solving for p, Initial residual = 0.000105321, Final residual = 9.78238e-07, No Iterations 39
time step continuity errors : sum local = 2.41735e-10, global = -2.60585e-11, cumulative = 5.83237e-07
ExecutionTime = 0.18 s  ClockTime = 0 s

Time = 3.15

Courant Number mean: 0.0797866 max: 0.460754
smoothSolver:  Solving for Ux, Initial residual = 0.00145016, Final residual = 3.87897e-06, No Iterations 1
smoothSolver:  Solving for Uy, Initial residual = 0.000772195, Final residual = 2.59931e-06, No Iterations 1
DICPCG:  Solving for p, Initial residual = 0.0188219, Final residual = 0.000767317, No Iterations 6
DICPCG:  Solving for p, Initial residual = 0.002959, Final residual = 0.000146274, No Iterations 18
DICPCG:  Solving for p, Initial residual = 0.000570827, Final residual = 2.74625e-05, No Iterations 22
time step continuity errors : sum local = 6.77996e-09, global = 1.80457e-10, cumulative = 5.83418e-07
DICPCG:  Solving for p, Initial residual = 0.00109763, Final residual = 4.98345e-05, No Iterations 5
DICPCG:  Solving for p, Initial residual = 0.000182054, Final residual = 8.01788e-06, No Iterations 13
DICPCG:  Solving for p, Initial residual = 3.92746e-05, Final residual = 8.10058e-07, No Iterations 52
time step continuity errors : sum local = 2.00058e-10, global = -9.49664e-12, cumulative = 5.83408e-07
ExecutionTime = 0.18 s  ClockTime = 0 s

Time = 3.2

Courant Number mean: 0.0798022 max: 0.462749
smoothSolver:  Solving for Ux, Initial residual = 0.00144207, Final residual = 3.86632e-06, No Iterations 1
smoothSolver:  Solving for Uy, Initial residual = 0.000770362, Final residual = 2.56851e-06, No Iterations 1
DICPCG:  Solving for p, Initial residual = 0.0164403, Final residual = 0.000745416, No Iterations 6
DICPCG:  Solving for p, Initial residual = 0.00267888, Final residual = 0.000129101, No Iterations 15
DICPCG:  Solving for p, Initial residual = 0.000531736, Final residual = 2.50311e-05, No Iterations 54
time step continuity errors : sum local = 6.13969e-09, global = -9.18316e-11, cumulative = 5.83316e-07
DICPCG:  Solving for p, Initial residual = 0.000991148, Final residual = 4.26339e-05, No Iterations 6
DICPCG:  Solving for p, Initial residual = 0.000179905, Final residual = 8.34954e-06, No Iterations 14
DICPCG:  Solving for p, Initial residual = 3.82417e-05, Final residual = 9.24493e-07, No Iterations 32
time step continuity errors : sum local = 2.26566e-10, global = -5.70463e-11, cumulative = 5.83259e-07
ExecutionTime = 0.19 s  ClockTime = 0 s

Time = 3.25

Courant Number mean: 0.0798179 max: 0.464702
smoothSolver:  Solving for Ux, Initial residual = 0.00142983, Final residual = 3.9801e-06, No Iterations 1
smoothSolver:  Solving for Uy, Initial residual = 0.000767832, Final residual = 2.55455e-06, No Iterations 1
DICPCG:  Solving for p, Initial residual = 0.0188211, Final residual = 0.000833856, No Iterations 6
DICPCG:  Solving for p, Initial residual = 0.00259268, Final residual = 0.000114244, No Iterations 14
DICPCG:  Solving for p, Initial residual = 0.00053646, Final residual = 2.04967e-05, No Iterations 48
time step continuity errors : sum local = 4.97979e-09, global = -1.92616e-11, cumulative = 5.8324e-07
DICPCG:  Solving for p, Initial residual = 0.00127901, Final residual = 5.75657e-05, No Iterations 6
DICPCG:  Solving for p, Initial residual = 0.000238954, Final residual = 1.17969e-05, No Iterations 14
DICPCG:  Solving for p, Initial residual = 5.64972e-05, Final residual = 8.90409e-07, No Iterations 32
time step continuity errors : sum local = 2.16104e-10, global = 1.49178e-11, cumulative = 5.83255e-07
ExecutionTime = 0.19 s  ClockTime = 0 s

Time = 3.3

Courant Number mean: 0.0798341 max: 0.466616
smoothSolver:  Solving for Ux, Initial residual = 0.0014178, Final residual = 3.97275e-06, No Iterations 1
smoothSolver:  Solving for Uy, Initial residual = 0.000762778, Final residual = 2.4842e-06, No Iterations 1
DICPCG:  Solving for p, Initial residual = 0.0188757, Final residual = 0.000814791, No Iterations 5
DICPCG:  Solving for p, Initial residual = 0.00288242, Final residual = 0.000131693, No Iterations 18
DICPCG:  Solving for p, Initial residual = 0.000613425, Final residual = 2.68305e-05, No Iterations 43
time step continuity errors : sum local = 6.47831e-09, global = -1.34019e-11, cumulative = 5.83242e-07
DICPCG:  Solving for p, Initial residual = 0.00136171, Final residual = 5.83106e-05, No Iterations 5
DICPCG:  Solving for p, Initial residual = 0.000237169, Final residual = 1.09945e-05, No Iterations 14
DICPCG:  Solving for p, Initial residual = 5.81281e-05, Final residual = 8.25658e-07, No Iterations 56
time step continuity errors : sum local = 1.99048e-10, global = 5.9819e-12, cumulative = 5.83247e-07
ExecutionTime = 0.19 s  ClockTime = 0 s

Time = 3.35

Courant Number mean: 0.0798502 max: 0.468469
smoothSolver:  Solving for Ux, Initial residual = 0.001405, Final residual = 4.07209e-06, No Iterations 1
smoothSolver:  Solving for Uy, Initial residual = 0.000758782, Final residual = 2.45892e-06, No Iterations 1
DICPCG:  Solving for p, Initial residual = 0.0176189, Final residual = 0.000712877, No Iterations 6
DICPCG:  Solving for p, Initial residual = 0.002781, Final residual = 0.000118012, No Iterations 18
DICPCG:  Solving for p, Initial residual = 0.000559564, Final residual = 1.95247e-05, No Iterations 47
time step continuity errors : sum local = 4.6874e-09, global = -7.27319e-11, cumulative = 5.83175e-07
DICPCG:  Solving for p, Initial residual = 0.00132281, Final residual = 5.50116e-05, No Iterations 5
DICPCG:  Solving for p, Initial residual = 0.000240667, Final residual = 1.1103e-05, No Iterations 14
DICPCG:  Solving for p, Initial residual = 5.57021e-05, Final residual = 7.57255e-07, No Iterations 59
time step continuity errors : sum local = 1.81544e-10, global = -5.00819e-12, cumulative = 5.8317e-07
ExecutionTime = 0.19 s  ClockTime = 0 s

Time = 3.4

Courant Number mean: 0.0798657 max: 0.470272
smoothSolver:  Solving for Ux, Initial residual = 0.00139327, Final residual = 4.15118e-06, No Iterations 1
smoothSolver:  Solving for Uy, Initial residual = 0.000754331, Final residual = 2.43052e-06, No Iterations 1
DICPCG:  Solving for p, Initial residual = 0.0170475, Final residual = 0.000725092, No Iterations 6
DICPCG:  Solving for p, Initial residual = 0.00276976, Final residual = 0.000133929, No Iterations 14
DICPCG:  Solving for p, Initial residual = 0.000582948, Final residual = 2.46803e-05, No Iterations 48
time step continuity errors : sum local = 5.88953e-09, global = 6.03366e-10, cumulative = 5.83773e-07
DICPCG:  Solving for p, Initial residual = 0.00123773, Final residual = 5.66056e-05, No Iterations 5
DICPCG:  Solving for p, Initial residual = 0.000239465, Final residual = 1.06461e-05, No Iterations 13
DICPCG:  Solving for p, Initial residual = 5.54614e-05, Final residual = 8.67936e-07, No Iterations 26
time step continuity errors : sum local = 2.06965e-10, global = 5.11218e-11, cumulative = 5.83824e-07
ExecutionTime = 0.2 s  ClockTime = 0 s

Time = 3.45

Courant Number mean: 0.0798807 max: 0.472026
smoothSolver:  Solving for Ux, Initial residual = 0.00138179, Final residual = 4.15041e-06, No Iterations 1
smoothSolver:  Solving for Uy, Initial residual = 0.000750539, Final residual = 2.34206e-06, No Iterations 1
DICPCG:  Solving for p, Initial residual = 0.0165653, Final residual = 0.000650372, No Iterations 6
DICPCG:  Solving for p, Initial residual = 0.00270256, Final residual = 0.00012762, No Iterations 14
DICPCG:  Solving for p, Initial residual = 0.000555593, Final residual = 2.60408e-05, No Iterations 47
time step continuity errors : sum local = 6.20392e-09, global = 4.1078e-10, cumulative = 5.84235e-07
DICPCG:  Solving for p, Initial residual = 0.00121928, Final residual = 5.20956e-05, No Iterations 5
DICPCG:  Solving for p, Initial residual = 0.00024091, Final residual = 1.09899e-05, No Iterations 8
DICPCG:  Solving for p, Initial residual = 4.63674e-05, Final residual = 9.04221e-07, No Iterations 56
time step continuity errors : sum local = 2.1511e-10, global = 1.29657e-12, cumulative = 5.84236e-07
ExecutionTime = 0.2 s  ClockTime = 0 s

Time = 3.5

Courant Number mean: 0.0798952 max: 0.473738
smoothSolver:  Solving for Ux, Initial residual = 0.00137179, Final residual = 3.99752e-06, No Iterations 1
smoothSolver:  Solving for Uy, Initial residual = 0.000747642, Final residual = 2.1927e-06, No Iterations 1
DICPCG:  Solving for p, Initial residual = 0.0169857, Final residual = 0.00063379, No Iterations 6
DICPCG:  Solving for p, Initial residual = 0.00264436, Final residual = 0.000127659, No Iterations 13
DICPCG:  Solving for p, Initial residual = 0.000529453, Final residual = 2.51218e-05, No Iterations 41
time step continuity errors : sum local = 5.98657e-09, global = -1.47995e-10, cumulative = 5.84088e-07
DICPCG:  Solving for p, Initial residual = 0.00112899, Final residual = 4.92841e-05, No Iterations 5
[...]
DICPCG:  Solving for p, Initial residual = 0.00203892, Final residual = 9.42496e-05, No Iterations 11
DICPCG:  Solving for p, Initial residual = 0.000397648, Final residual = 1.86625e-05, No Iterations 22
time step continuity errors : sum local = 4.49473e-09, global = 7.68693e-10, cumulative = 5.93017e-07
DICPCG:  Solving for p, Initial residual = 0.00063764, Final residual = 2.19893e-05, No Iterations 5
DICPCG:  Solving for p, Initial residual = 0.000109694, Final residual = 4.94463e-06, No Iterations 40
DICPCG:  Solving for p, Initial residual = 4.11339e-05, Final residual = 9.25972e-07, No Iterations 21
time step continuity errors : sum local = 2.22921e-10, global = 8.04277e-12, cumulative = 5.93026e-07
ExecutionTime = 0.49 s  ClockTime = 0 s

Time = 9.2

Courant Number mean: 0.0806984 max: 0.50077
smoothSolver:  Solving for Ux, Initial residual = 0.0010229, Final residual = 2.28784e-06, No Iterations 1
smoothSolver:  Solving for Uy, Initial residual = 0.000699659, Final residual = 1.56748e-06, No Iterations 1
DICPCG:  Solving for p, Initial residual = 0.00891544, Final residual = 0.000311714, No Iterations 5
DICPCG:  Solving for p, Initial residual = 0.00156346, Final residual = 7.6539e-05, No Iterations 6
DICPCG:  Solving for p, Initial residual = 0.000216866, Final residual = 1.00566e-05, No Iterations 44
time step continuity errors : sum local = 2.41642e-09, global = -1.84013e-10, cumulative = 5.92841e-07
DICPCG:  Solving for p, Initial residual = 0.000493676, Final residual = 1.93377e-05, No Iterations 5
DICPCG:  Solving for p, Initial residual = 8.94149e-05, Final residual = 3.81965e-06, No Iterations 17
DICPCG:  Solving for p, Initial residual = 1.95988e-05, Final residual = 9.43588e-07, No Iterations 43
time step continuity errors : sum local = 2.26561e-10, global = 1.01607e-11, cumulative = 5.92852e-07
ExecutionTime = 0.49 s  ClockTime = 0 s

Time = 9.25

Courant Number mean: 0.0807036 max: 0.500605
smoothSolver:  Solving for Ux, Initial residual = 0.00102023, Final residual = 2.28041e-06, No Iterations 1
smoothSolver:  Solving for Uy, Initial residual = 0.000698606, Final residual = 1.54819e-06, No Iterations 1
DICPCG:  Solving for p, Initial residual = 0.00871881, Final residual = 0.000321509, No Iterations 5
DICPCG:  Solving for p, Initial residual = 0.00150699, Final residual = 6.92936e-05, No Iterations 6
DICPCG:  Solving for p, Initial residual = 0.000205861, Final residual = 1.02511e-05, No Iterations 42
time step continuity errors : sum local = 2.45737e-09, global = -1.22332e-10, cumulative = 5.92729e-07
DICPCG:  Solving for p, Initial residual = 0.000455139, Final residual = 1.77815e-05, No Iterations 5
DICPCG:  Solving for p, Initial residual = 8.41076e-05, Final residual = 3.5304e-06, No Iterations 17
DICPCG:  Solving for p, Initial residual = 1.83996e-05, Final residual = 9.21507e-07, No Iterations 13
time step continuity errors : sum local = 2.20837e-10, global = 1.15203e-12, cumulative = 5.9273e-07
ExecutionTime = 0.5 s  ClockTime = 0 s

Time = 9.3

Courant Number mean: 0.0807086 max: 0.500473
smoothSolver:  Solving for Ux, Initial residual = 0.00101879, Final residual = 2.28928e-06, No Iterations 1
smoothSolver:  Solving for Uy, Initial residual = 0.000697996, Final residual = 1.51158e-06, No Iterations 1
DICPCG:  Solving for p, Initial residual = 0.00833409, Final residual = 0.000402041, No Iterations 5
DICPCG:  Solving for p, Initial residual = 0.00159931, Final residual = 7.77282e-05, No Iterations 10
DICPCG:  Solving for p, Initial residual = 0.000274335, Final residual = 1.32182e-05, No Iterations 19
time step continuity errors : sum local = 3.16436e-09, global = -5.98694e-10, cumulative = 5.92132e-07
DICPCG:  Solving for p, Initial residual = 0.00048165, Final residual = 1.79314e-05, No Iterations 6
DICPCG:  Solving for p, Initial residual = 9.21134e-05, Final residual = 4.0932e-06, No Iterations 51
DICPCG:  Solving for p, Initial residual = 4.17563e-05, Final residual = 8.72627e-07, No Iterations 11
time step continuity errors : sum local = 2.08986e-10, global = 2.10824e-11, cumulative = 5.92153e-07
ExecutionTime = 0.5 s  ClockTime = 0 s

Time = 9.35

Courant Number mean: 0.0807135 max: 0.500371
smoothSolver:  Solving for Ux, Initial residual = 0.00102054, Final residual = 2.29087e-06, No Iterations 1
smoothSolver:  Solving for Uy, Initial residual = 0.000697586, Final residual = 1.49259e-06, No Iterations 1
DICPCG:  Solving for p, Initial residual = 0.00946813, Final residual = 0.000472848, No Iterations 4
DICPCG:  Solving for p, Initial residual = 0.00142692, Final residual = 6.49327e-05, No Iterations 8
DICPCG:  Solving for p, Initial residual = 0.000254192, Final residual = 1.02726e-05, No Iterations 52
time step continuity errors : sum local = 2.46503e-09, global = 9.46033e-11, cumulative = 5.92247e-07
DICPCG:  Solving for p, Initial residual = 0.000490666, Final residual = 1.95965e-05, No Iterations 5
DICPCG:  Solving for p, Initial residual = 8.45507e-05, Final residual = 3.81856e-06, No Iterations 8
DICPCG:  Solving for p, Initial residual = 1.58791e-05, Final residual = 9.95888e-07, No Iterations 45
time step continuity errors : sum local = 2.38863e-10, global = -1.98212e-12, cumulative = 5.92245e-07
ExecutionTime = 0.5 s  ClockTime = 0 s

Time = 9.4

Courant Number mean: 0.0807185 max: 0.500299
smoothSolver:  Solving for Ux, Initial residual = 0.0010199, Final residual = 2.27901e-06, No Iterations 1
smoothSolver:  Solving for Uy, Initial residual = 0.000697474, Final residual = 1.48026e-06, No Iterations 1
DICPCG:  Solving for p, Initial residual = 0.0108393, Final residual = 0.000512919, No Iterations 6
DICPCG:  Solving for p, Initial residual = 0.00190397, Final residual = 9.5036e-05, No Iterations 11
DICPCG:  Solving for p, Initial residual = 0.00038027, Final residual = 1.88474e-05, No Iterations 23
time step continuity errors : sum local = 4.49836e-09, global = -5.90935e-10, cumulative = 5.91655e-07
DICPCG:  Solving for p, Initial residual = 0.000546203, Final residual = 2.10319e-05, No Iterations 6
DICPCG:  Solving for p, Initial residual = 0.000103847, Final residual = 4.74583e-06, No Iterations 46
DICPCG:  Solving for p, Initial residual = 3.37843e-05, Final residual = 8.9741e-07, No Iterations 16
time step continuity errors : sum local = 2.14291e-10, global = 1.2661e-11, cumulative = 5.91667e-07
ExecutionTime = 0.5 s  ClockTime = 0 s

Time = 9.45

Courant Number mean: 0.0807247 max: 0.500247
smoothSolver:  Solving for Ux, Initial residual = 0.00101957, Final residual = 2.29144e-06, No Iterations 1
smoothSolver:  Solving for Uy, Initial residual = 0.000697367, Final residual = 1.47503e-06, No Iterations 1
DICPCG:  Solving for p, Initial residual = 0.0112648, Final residual = 0.000517656, No Iterations 6
DICPCG:  Solving for p, Initial residual = 0.0019721, Final residual = 9.71776e-05, No Iterations 11
DICPCG:  Solving for p, Initial residual = 0.000386305, Final residual = 1.89376e-05, No Iterations 23
time step continuity errors : sum local = 4.52957e-09, global = -6.51313e-10, cumulative = 5.91016e-07
DICPCG:  Solving for p, Initial residual = 0.0005439, Final residual = 2.12965e-05, No Iterations 6
DICPCG:  Solving for p, Initial residual = 0.00010364, Final residual = 4.0809e-06, No Iterations 51
DICPCG:  Solving for p, Initial residual = 3.44235e-05, Final residual = 8.92288e-07, No Iterations 11
time step continuity errors : sum local = 2.1353e-10, global = 3.49949e-11, cumulative = 5.91051e-07
ExecutionTime = 0.51 s  ClockTime = 0 s

Time = 9.5

Courant Number mean: 0.0807307 max: 0.500209
smoothSolver:  Solving for Ux, Initial residual = 0.00101782, Final residual = 2.2925e-06, No Iterations 1
smoothSolver:  Solving for Uy, Initial residual = 0.000697501, Final residual = 1.47024e-06, No Iterations 1
DICPCG:  Solving for p, Initial residual = 0.00863375, Final residual = 0.000324405, No Iterations 5
DICPCG:  Solving for p, Initial residual = 0.00144742, Final residual = 6.86867e-05, No Iterations 6
DICPCG:  Solving for p, Initial residual = 0.000211996, Final residual = 9.66139e-06, No Iterations 18
time step continuity errors : sum local = 2.31475e-09, global = 2.8591e-10, cumulative = 5.91337e-07
DICPCG:  Solving for p, Initial residual = 0.000454946, Final residual = 1.93402e-05, No Iterations 5
DICPCG:  Solving for p, Initial residual = 8.34565e-05, Final residual = 3.59529e-06, No Iterations 50
DICPCG:  Solving for p, Initial residual = 2.35284e-05, Final residual = 8.99761e-07, No Iterations 12
time step continuity errors : sum local = 2.15565e-10, global = -7.74305e-12, cumulative = 5.91329e-07
ExecutionTime = 0.51 s  ClockTime = 0 s

Time = 9.55

Courant Number mean: 0.0807363 max: 0.500186
smoothSolver:  Solving for Ux, Initial residual = 0.00101699, Final residual = 2.28595e-06, No Iterations 1
smoothSolver:  Solving for Uy, Initial residual = 0.000695557, Final residual = 1.47026e-06, No Iterations 1
DICPCG:  Solving for p, Initial residual = 0.00871523, Final residual = 0.000307746, No Iterations 5
DICPCG:  Solving for p, Initial residual = 0.00136453, Final residual = 6.70219e-05, No Iterations 6
DICPCG:  Solving for p, Initial residual = 0.000212294, Final residual = 9.60435e-06, No Iterations 47
time step continuity errors : sum local = 2.30194e-09, global = 7.78148e-12, cumulative = 5.91337e-07
DICPCG:  Solving for p, Initial residual = 0.00048129, Final residual = 1.92467e-05, No Iterations 5
DICPCG:  Solving for p, Initial residual = 8.63903e-05, Final residual = 3.08479e-06, No Iterations 7
DICPCG:  Solving for p, Initial residual = 1.42517e-05, Final residual = 9.69786e-07, No Iterations 9
time step continuity errors : sum local = 2.32369e-10, global = -2.93165e-11, cumulative = 5.91308e-07
ExecutionTime = 0.51 s  ClockTime = 0 s

Time = 9.6

Courant Number mean: 0.0807416 max: 0.500178
smoothSolver:  Solving for Ux, Initial residual = 0.00101354, Final residual = 2.28371e-06, No Iterations 1
smoothSolver:  Solving for Uy, Initial residual = 0.000694171, Final residual = 1.472e-06, No Iterations 1
DICPCG:  Solving for p, Initial residual = 0.00845657, Final residual = 0.000310248, No Iterations 5
DICPCG:  Solving for p, Initial residual = 0.0013851, Final residual = 5.67954e-05, No Iterations 7
DICPCG:  Solving for p, Initial residual = 0.000221689, Final residual = 9.35302e-06, No Iterations 47
time step continuity errors : sum local = 2.24124e-09, global = 1.0959e-10, cumulative = 5.91417e-07
DICPCG:  Solving for p, Initial residual = 0.000493517, Final residual = 1.86097e-05, No Iterations 5
DICPCG:  Solving for p, Initial residual = 8.84056e-05, Final residual = 3.79902e-06, No Iterations 7
DICPCG:  Solving for p, Initial residual = 1.49171e-05, Final residual = 9.49444e-07, No Iterations 18
time step continuity errors : sum local = 2.27432e-10, global = -2.72918e-11, cumulative = 5.9139e-07
ExecutionTime = 0.51 s  ClockTime = 0 s

Time = 9.65

Courant Number mean: 0.0807467 max: 0.500181
smoothSolver:  Solving for Ux, Initial residual = 0.00100918, Final residual = 2.28625e-06, No Iterations 1
smoothSolver:  Solving for Uy, Initial residual = 0.000692381, Final residual = 1.47608e-06, No Iterations 1
DICPCG:  Solving for p, Initial residual = 0.00915253, Final residual = 0.000385475, No Iterations 5
DICPCG:  Solving for p, Initial residual = 0.00148243, Final residual = 6.52662e-05, No Iterations 12
DICPCG:  Solving for p, Initial residual = 0.000292248, Final residual = 1.35999e-05, No Iterations 19
time step continuity errors : sum local = 3.26222e-09, global = -5.55725e-10, cumulative = 5.90834e-07
DICPCG:  Solving for p, Initial residual = 0.00054195, Final residual = 2.50473e-05, No Iterations 5
DICPCG:  Solving for p, Initial residual = 0.000100474, Final residual = 4.79912e-06, No Iterations 50
DICPCG:  Solving for p, Initial residual = 4.42932e-05, Final residual = 8.53686e-07, No Iterations 10
time step continuity errors : sum local = 2.04858e-10, global = 1.4509e-11, cumulative = 5.90849e-07
ExecutionTime = 0.52 s  ClockTime = 0 s

Time = 9.7

Courant Number mean: 0.0807514 max: 0.500194
smoothSolver:  Solving for Ux, Initial residual = 0.0010054, Final residual = 2.29943e-06, No Iterations 1
smoothSolver:  Solving for Uy, Initial residual = 0.000689909, Final residual = 1.47733e-06, No Iterations 1
DICPCG:  Solving for p, Initial residual = 0.00883437, Final residual = 0.000364908, No Iterations 5
DICPCG:  Solving for p, Initial residual = 0.00142943, Final residual = 6.96135e-05, No Iterations 11
DICPCG:  Solving for p, Initial residual = 0.000280752, Final residual = 1.26968e-05, No Iterations 19
time step continuity errors : sum local = 3.0498e-09, global = -4.31993e-10, cumulative = 5.90417e-07
DICPCG:  Solving for p, Initial residual = 0.000533306, Final residual = 2.39668e-05, No Iterations 5
DICPCG:  Solving for p, Initial residual = 9.62278e-05, Final residual = 3.69469e-06, No Iterations 51
DICPCG:  Solving for p, Initial residual = 4.05177e-05, Final residual = 9.84595e-07, No Iterations 9
time step continuity errors : sum local = 2.36584e-10, global = 1.29226e-11, cumulative = 5.9043e-07
ExecutionTime = 0.52 s  ClockTime = 0 s

Time = 9.75

Courant Number mean: 0.0807558 max: 0.500216
smoothSolver:  Solving for Ux, Initial residual = 0.00100106, Final residual = 2.29591e-06, No Iterations 1
smoothSolver:  Solving for Uy, Initial residual = 0.000688054, Final residual = 1.48093e-06, No Iterations 1
DICPCG:  Solving for p, Initial residual = 0.00945019, Final residual = 0.000377983, No Iterations 5
DICPCG:  Solving for p, Initial residual = 0.00143912, Final residual = 6.40657e-05, No Iterations 17
DICPCG:  Solving for p, Initial residual = 0.000298024, Final residual = 1.17406e-05, No Iterations 47
time step continuity errors : sum local = 2.82736e-09, global = 1.61815e-10, cumulative = 5.90591e-07
DICPCG:  Solving for p, Initial residual = 0.000555038, Final residual = 2.36552e-05, No Iterations 5
DICPCG:  Solving for p, Initial residual = 9.64116e-05, Final residual = 4.18255e-06, No Iterations 9
DICPCG:  Solving for p, Initial residual = 2.13006e-05, Final residual = 9.34209e-07, No Iterations 49
time step continuity errors : sum local = 2.25099e-10, global = -9.67552e-12, cumulative = 5.90582e-07
ExecutionTime = 0.52 s  ClockTime = 0 s

Time = 9.8

Courant Number mean: 0.0807599 max: 0.500246
smoothSolver:  Solving for Ux, Initial residual = 0.000994984, Final residual = 2.28338e-06, No Iterations 1
smoothSolver:  Solving for Uy, Initial residual = 0.000686512, Final residual = 1.46847e-06, No Iterations 1
DICPCG:  Solving for p, Initial residual = 0.00941588, Final residual = 0.000320547, No Iterations 5
DICPCG:  Solving for p, Initial residual = 0.00125214, Final residual = 6.03461e-05, No Iterations 12
DICPCG:  Solving for p, Initial residual = 0.000244862, Final residual = 1.19993e-05, No Iterations 30
time step continuity errors : sum local = 2.89804e-09, global = -5.6355e-10, cumulative = 5.90018e-07
DICPCG:  Solving for p, Initial residual = 0.000493107, Final residual = 1.72012e-05, No Iterations 5
DICPCG:  Solving for p, Initial residual = 8.34485e-05, Final residual = 4.11063e-06, No Iterations 48
DICPCG:  Solving for p, Initial residual = 2.73812e-05, Final residual = 8.60932e-07, No Iterations 8
time step continuity errors : sum local = 2.08026e-10, global = 1.25355e-11, cumulative = 5.90031e-07
ExecutionTime = 0.52 s  ClockTime = 0 s

Time = 9.85

Courant Number mean: 0.0807637 max: 0.500287
smoothSolver:  Solving for Ux, Initial residual = 0.000992025, Final residual = 2.2804e-06, No Iterations 1
smoothSolver:  Solving for Uy, Initial residual = 0.000685557, Final residual = 1.46349e-06, No Iterations 1
DICPCG:  Solving for p, Initial residual = 0.0101815, Final residual = 0.000461177, No Iterations 4
DICPCG:  Solving for p, Initial residual = 0.00125637, Final residual = 6.14436e-05, No Iterations 12
DICPCG:  Solving for p, Initial residual = 0.000277215, Final residual = 1.37702e-05, No Iterations 18
time step continuity errors : sum local = 3.33565e-09, global = -3.29182e-10, cumulative = 5.89701e-07
DICPCG:  Solving for p, Initial residual = 0.000536187, Final residual = 2.6614e-05, No Iterations 4
DICPCG:  Solving for p, Initial residual = 8.71399e-05, Final residual = 4.01914e-06, No Iterations 18
DICPCG:  Solving for p, Initial residual = 3.15629e-05, Final residual = 9.73071e-07, No Iterations 52
time step continuity errors : sum local = 2.35732e-10, global = 6.87591e-12, cumulative = 5.89708e-07
ExecutionTime = 0.53 s  ClockTime = 0 s

Time = 9.9

Courant Number mean: 0.0807673 max: 0.500341
smoothSolver:  Solving for Ux, Initial residual = 0.000989306, Final residual = 2.23936e-06, No Iterations 1
smoothSolver:  Solving for Uy, Initial residual = 0.000685802, Final residual = 1.46914e-06, No Iterations 1
DICPCG:  Solving for p, Initial residual = 0.0102172, Final residual = 0.000433269, No Iterations 4
DICPCG:  Solving for p, Initial residual = 0.0014224, Final residual = 6.64237e-05, No Iterations 8
DICPCG:  Solving for p, Initial residual = 0.000259864, Final residual = 1.1255e-05, No Iterations 27
time step continuity errors : sum local = 2.73046e-09, global = 2.57759e-10, cumulative = 5.89966e-07
DICPCG:  Solving for p, Initial residual = 0.000559442, Final residual = 2.55829e-05, No Iterations 4
DICPCG:  Solving for p, Initial residual = 8.94694e-05, Final residual = 4.28457e-06, No Iterations 19
DICPCG:  Solving for p, Initial residual = 2.59367e-05, Final residual = 9.92439e-07, No Iterations 44
time step continuity errors : sum local = 2.40781e-10, global = 9.44989e-12, cumulative = 5.89976e-07
ExecutionTime = 0.53 s  ClockTime = 0 s

Time = 9.95

Courant Number mean: 0.0807715 max: 0.500406
smoothSolver:  Solving for Ux, Initial residual = 0.00098832, Final residual = 2.18757e-06, No Iterations 1
smoothSolver:  Solving for Uy, Initial residual = 0.000685505, Final residual = 1.45829e-06, No Iterations 1
DICPCG:  Solving for p, Initial residual = 0.0100301, Final residual = 0.00049478, No Iterations 4
DICPCG:  Solving for p, Initial residual = 0.00166816, Final residual = 7.03778e-05, No Iterations 6
DICPCG:  Solving for p, Initial residual = 0.000265825, Final residual = 1.20719e-05, No Iterations 24
time step continuity errors : sum local = 2.91749e-09, global = 6.70435e-10, cumulative = 5.90646e-07
DICPCG:  Solving for p, Initial residual = 0.000520853, Final residual = 1.88359e-05, No Iterations 5
DICPCG:  Solving for p, Initial residual = 8.82214e-05, Final residual = 3.15681e-06, No Iterations 47
DICPCG:  Solving for p, Initial residual = 3.8729e-05, Final residual = 8.31128e-07, No Iterations 15
time step continuity errors : sum local = 2.00845e-10, global = -1.08663e-11, cumulative = 5.90635e-07
ExecutionTime = 0.53 s  ClockTime = 0 s

Time = 10

Courant Number mean: 0.080776 max: 0.500482
smoothSolver:  Solving for Ux, Initial residual = 0.000987989, Final residual = 2.15569e-06, No Iterations 1
smoothSolver:  Solving for Uy, Initial residual = 0.000686598, Final residual = 1.46265e-06, No Iterations 1
DICPCG:  Solving for p, Initial residual = 0.0088189, Final residual = 0.000421197, No Iterations 4
DICPCG:  Solving for p, Initial residual = 0.00142321, Final residual = 6.21092e-05, No Iterations 10
DICPCG:  Solving for p, Initial residual = 0.000228283, Final residual = 9.10182e-06, No Iterations 52
time step continuity errors : sum local = 2.19614e-09, global = -7.69269e-11, cumulative = 5.90558e-07
DICPCG:  Solving for p, Initial residual = 0.000468166, Final residual = 2.32386e-05, No Iterations 4
DICPCG:  Solving for p, Initial residual = 7.94236e-05, Final residual = 3.48857e-06, No Iterations 17
DICPCG:  Solving for p, Initial residual = 1.70448e-05, Final residual = 9.74087e-07, No Iterations 18
time step continuity errors : sum local = 2.34962e-10, global = 1.37461e-11, cumulative = 5.90572e-07
ExecutionTime = 0.53 s  ClockTime = 0 s

End

